16
Generated by autodE on: 2025-05-23. charge = 0 mult = 1 E = -234.341883 Ha. Imaginary frequency = -488.6 cm-1
C      0.38082    1.58083   -0.11406
C     -0.94452    1.29835    0.27813
C     -1.60521    0.16863   -0.14507
C     -0.22457   -1.48997    0.64667
C      1.06934   -1.21365    0.26553
C      1.08992    0.74318   -0.94294
H      0.91666    2.37097    0.42194
H     -1.37157    1.88318    1.09928
H     -2.58556   -0.08470    0.26741
H     -1.37677   -0.28275   -1.11151
H     -0.55527   -1.28290    1.66564
H     -0.81349   -2.23081    0.10034
H      1.77430   -0.78451    0.97923
H      1.51606   -1.73388   -0.58530
H      2.15080    0.92445   -1.13556
H      0.57919    0.13388   -1.68976
