! EnGrad PBE0 RIJCOSX D3BJ def2-SVP def2/J 
%output 
xyzfile=True 
end 
%scf 
maxiter 250 
end
%output
Print[P_Hirshfeld] = 1
end
% maxcore
4000
*xyz 0 2
O   -2.31759000   0.53573000   1.74437000 
O   -0.50786000  -0.31910000   0.82454000 
C   -0.73625000   0.18816000  -0.46064000 
C    0.14222000   0.90443000   0.49829000 
C    1.52214000   0.45178000   0.25354000 
C    1.37506000  -0.61628000  -0.53230000 
C    0.11358000  -0.67483000  -1.33290000 
H   -2.22537000  -0.22554000   2.33973000 
H   -1.75648000   0.50900000  -0.68405000 
H   -0.18356000   1.78163000   1.05949000 
H    2.40839000   0.74674000   0.81367000 
H    2.19856000  -1.30329000  -0.75559000 
H    0.28042000  -0.29107000  -2.35377000 
H   -0.31326000  -1.68726000  -1.41438000 
*
