! EnGrad PBE0 RIJCOSX D3BJ def2-SVP def2/J 
%output 
xyzfile=True 
end 
%scf 
maxiter 250 
end
%output
Print[P_Hirshfeld] = 1
end
% maxcore
4000
*xyz 0 2
O   -2.33753834   0.54688010   1.75423483 
O   -0.62146395  -0.30802875   0.91028824 
C   -0.73531962   0.18747594  -0.45925435 
C    0.14111568   0.90364660   0.49853694 
C    1.52369941   0.45208850   0.25285257 
C    1.50597509  -0.63732953  -0.62642161 
C    0.11411830  -0.67491690  -1.33390022 
H   -2.22707227  -0.22315078   2.33967534 
H   -1.75664208   0.50663055  -0.68279985 
H   -0.18344214   1.77967493   1.06088259 
H    2.40917163   0.74743876   0.81252341 
H    2.19916254  -1.30283210  -0.75650811 
H    0.28064060  -0.29013265  -2.35408287 
H   -0.31221249  -1.68732311  -1.41584606 
*
