! EnGrad PBE0 RIJCOSX D3BJ def2-SVP def2/J 
%output 
xyzfile=True 
end 
%scf 
maxiter 250 
end
%output
Print[P_Hirshfeld] = 1
end
% maxcore
4000
*xyz 0 2
O   -2.34063528   0.54765644   1.75635560 
O   -0.61655517  -0.30152277   0.90103583 
C   -0.73405235   0.18505853  -0.45008720 
C    0.13718144   0.89655265   0.49960748 
C    1.52658131   0.43607575   0.24264994 
C    1.46762357  -0.59520511  -0.61250227 
C    0.12304769  -0.67817860  -1.33221363 
H   -2.22752271  -0.22203023   2.33919728 
H   -1.75588104   0.50736304  -0.68408208 
H   -0.18266858   1.78050952   1.06014662 
H    2.40896197   0.74824920   0.81372828 
H    2.22745836  -1.32725066  -0.76317590 
H    0.27856379  -0.28970372  -2.35447317 
H   -0.31188300  -1.68747209  -1.41603633 
*
