12
Generated by autodE on: 2025-05-23. charge = 0 mult = 1 E = -268.760909 Ha
C      1.08460   -0.78315   -0.19516
C      1.24059    0.53575   -0.03738
C     -0.20924    1.01972   -0.19219
C     -0.96668    0.02757    0.72636
C     -0.43275   -0.87079   -0.41814
O     -0.66780    0.23688   -1.31942
H      1.80723   -1.59790   -0.17752
H      2.13044    1.13535    0.14932
H     -0.42973    2.09364   -0.24993
H     -2.05744    0.16193    0.67955
H     -0.60666   -0.13750    1.75213
H     -0.89266   -1.82159   -0.71782
