12
Coordinates from ORCA-job p0_C5H6O_opt_orca E -268.760900937328
  C       1.085563     -0.783637     -0.194895
  C       1.241638      0.535930     -0.037054
  C      -0.208493      1.019037     -0.192379
  C      -0.967251      0.027662      0.726151
  C      -0.431874     -0.870250     -0.418188
  O      -0.667088      0.236929     -1.320472
  H       1.803640     -1.602593     -0.178508
  H       2.128068      1.140787      0.149628
  H      -0.428335      2.093428     -0.250301
  H      -2.058101      0.161741      0.681882
  H      -0.606715     -0.137476      1.752084
  H      -0.891152     -1.821658     -0.718148
12
Coordinates from ORCA-job p0_C5H6O_opt_orca E -268.760905402203
  C       1.085105     -0.783366     -0.194870
  C       1.241130      0.535776     -0.037070
  C      -0.208724      1.019284     -0.192353
  C      -0.966839      0.027624      0.726059
  C      -0.432155     -0.870447     -0.418212
  O      -0.667277      0.236894     -1.320024
  H       1.804394     -1.601096     -0.178082
  H       2.128438      1.139115      0.149661
  H      -0.428689      2.093420     -0.250188
  H      -2.057655      0.161769      0.681197
  H      -0.606303     -0.137486      1.751714
  H      -0.891525     -1.821587     -0.718031
12
Coordinates from ORCA-job p0_C5H6O_opt_orca E -268.760908815783
  C       1.084618     -0.783097     -0.195027
  C       1.240598      0.535675     -0.037273
  C      -0.209158      1.019682     -0.192247
  C      -0.966577      0.027572      0.726201
  C      -0.432665     -0.870762     -0.418191
  O      -0.667655      0.236874     -1.319477
  H       1.806448     -1.598549     -0.177549
  H       2.129827      1.136142      0.149472
  H      -0.429475      2.093611     -0.249985
  H      -2.057367      0.161878      0.679911
  H      -0.606306     -0.137515      1.751841
  H      -0.892387     -1.821612     -0.717878
12
Coordinates from ORCA-job p0_C5H6O_opt_orca E -268.760909316205
  C       1.084598     -0.783145     -0.195159
  C       1.240590      0.535753     -0.037383
  C      -0.209241      1.019717     -0.192190
  C      -0.966677      0.027565      0.726359
  C      -0.432750     -0.870793     -0.418137
  O      -0.667799      0.236884     -1.319421
  H       1.807235     -1.597902     -0.177523
  H       2.130436      1.135349      0.149324
  H      -0.429734      2.093644     -0.249925
  H      -2.057435      0.161926      0.679550
  H      -0.606660     -0.137505      1.752125
  H      -0.892662     -1.821592     -0.717821
