16
autodE path point 0. E = -17.931438312248 charge = 0 mult = 1 
C      0.24749    1.48578   -0.31524
C     -1.01069    1.15808   -0.07479
C     -1.45463   -0.23488    0.25304
C     -0.27311   -1.11491    0.65067
C      0.86460   -0.93380   -0.34847
C      1.37745    0.50211   -0.29243
H      0.51575    2.51077   -0.53397
H     -1.79081    1.90640   -0.11768
H     -2.19192   -0.20331    1.05980
H     -1.95713   -0.66045   -0.62280
H      0.07508   -0.82698    1.64508
H     -0.58254   -2.16138    0.69151
H      1.67722   -1.63053   -0.13225
H      0.49507   -1.14801   -1.35374
H      1.95895    0.65386    0.62385
H      2.04930    0.69754   -1.13260
16
autodE path point 1. E = -17.903146877807 charge = 0 mult = 1 
C      0.23993    1.51680   -0.31510
C     -1.02054    1.18732   -0.08256
C     -1.52085   -0.17617    0.23321
C     -0.22205   -1.20984    0.67320
C      0.87282   -1.04379   -0.33988
C      1.40121    0.58936   -0.29576
H      0.48749    2.54946   -0.53190
H     -1.78657    1.95261   -0.12893
H     -2.21822   -0.16069    1.06788
H     -2.00597   -0.62663   -0.63189
H      0.09769   -0.91062    1.66704
H     -0.61790   -2.22231    0.69501
H      1.73956   -1.66253   -0.12012
H      0.52177   -1.23502   -1.34965
H      1.98438    0.70932    0.61649
H      2.04734    0.74301   -1.15706
16
autodE path point 2. E = -17.892223987106 charge = 0 mult = 1 
C      0.23822    1.52392   -0.31543
C     -1.02271    1.19406   -0.08447
C     -1.53377   -0.16347    0.22898
C     -0.21088   -1.23060    0.67894
C      0.87417   -1.06778   -0.33861
C      1.40540    0.60751   -0.29642
H      0.48197    2.55802   -0.53134
H     -1.78624    1.96229   -0.13197
H     -2.22430   -0.15193    1.06802
H     -2.01379   -0.62007   -0.63430
H      0.10421   -0.92634    1.67154
H     -0.62388   -2.23535    0.69914
H      1.75159   -1.67062   -0.12121
H      0.52451   -1.25227   -1.34905
H      1.98724    0.71954    0.61638
H      2.04836    0.75337   -1.16023
16
autodE path point 3. E = -17.88071311259 charge = 0 mult = 1 
C      0.23638    1.53128   -0.31572
C     -1.02510    1.20106   -0.08626
C     -1.54622   -0.15105    0.22531
C     -0.20006   -1.25123    0.68388
C      0.87647   -1.09161   -0.33743
C      1.40905    0.62502   -0.29676
H      0.47613    2.56689   -0.53151
H     -1.78596    1.97259   -0.13481
H     -2.23044   -0.14248    1.06858
H     -2.02207   -0.61243   -0.63675
H      0.11140   -0.94406    1.67590
H     -0.63078   -2.24814    0.70229
H      1.76454   -1.67839   -0.12136
H      0.52816   -1.27182   -1.34824
H      1.99010    0.73082    0.61632
H      2.04850    0.76382   -1.16347
16
autodE path point 4. E = -17.868723749905 charge = 0 mult = 1 
C      0.23429    1.53919   -0.31661
C     -1.02751    1.20881   -0.08772
C     -1.55784   -0.13772    0.22232
C     -0.19023   -1.27287    0.68799
C      0.87957   -1.11529   -0.33494
C      1.41183    0.64266   -0.29823
H      0.47034    2.57606   -0.53247
H     -1.78592    1.98328   -0.13684
H     -2.23483   -0.13265    1.07048
H     -2.03054   -0.60382   -0.63798
H      0.11674   -0.96520    1.68046
H     -0.63910   -2.26122    0.70131
H      1.77828   -1.68417   -0.11756
H      0.53499   -1.29301   -1.34665
H      1.99277    0.74269    0.61462
H      2.04726    0.77352   -1.16821
16
autodE path point 5. E = -17.856468040103 charge = 0 mult = 1 
C      0.23222    1.54713   -0.31743
C     -1.03001    1.21654   -0.08917
C     -1.56935   -0.12476    0.21929
C     -0.18047   -1.29423    0.69195
C      0.88295   -1.13887   -0.33247
C      1.41450    0.65998   -0.29952
H      0.46469    2.58524   -0.53360
H     -1.78600    1.99401   -0.13860
H     -2.23899   -0.12294    1.07246
H     -2.03937   -0.59505   -0.63930
H      0.12219   -0.98664    1.68506
H     -0.64772   -2.27369    0.69987
H      1.79211   -1.68951   -0.11347
H      0.54202   -1.31463   -1.34501
H      1.99564    0.75487    0.61289
H      2.04570    0.78282   -1.17297
16
autodE path point 6. E = -17.844064327808 charge = 0 mult = 1 
C      0.23015    1.55553   -0.31812
C     -1.03260    1.22460   -0.09094
C     -1.58004   -0.11201    0.21574
C     -0.17069   -1.31605    0.69668
C      0.88607   -1.16273   -0.32971
C      1.41678    0.67684   -0.30112
H      0.45878    2.59515   -0.53388
H     -1.78610    2.00520   -0.14085
H     -2.24351   -0.11320    1.07319
H     -2.04725   -0.58620   -0.64161
H      0.12943   -1.00821    1.68995
H     -0.65645   -2.28632    0.70071
H      1.80601   -1.69524   -0.11146
H      0.54734   -1.33683   -1.34287
H      1.99761    0.76664    0.61152
H      2.04459    0.79311   -1.17726
16
autodE path point 7. E = -17.831630569204 charge = 0 mult = 1 
C      0.22785    1.56406   -0.31899
C     -1.03531    1.23296   -0.09237
C     -1.59059   -0.09857    0.21310
C     -0.16074   -1.33775    0.70026
C      0.88977   -1.18674   -0.32727
C      1.41825    0.69386   -0.30234
H      0.45337    2.60471   -0.53500
H     -1.78659    2.01620   -0.14271
H     -2.24677   -0.10375    1.07528
H     -2.05447   -0.57752   -0.64262
H      0.13529   -1.03048    1.69434
H     -0.66620   -2.29743    0.69837
H      1.82020   -1.69878   -0.10686
H      0.55465   -1.35982   -1.34110
H      1.99944    0.77810    0.60976
H      2.04199    0.80125   -1.18187
16
autodE path point 8. E = -17.819206782965 charge = 0 mult = 1 
C      0.22554    1.57314   -0.32013
C     -1.03800    1.24183   -0.09386
C     -1.60032   -0.08491    0.20999
C     -0.15151   -1.36051    0.70424
C      0.89354   -1.21082   -0.32321
C      1.41939    0.71085   -0.30499
H      0.44785    2.61497   -0.53574
H     -1.78719    2.02765   -0.14401
H     -2.24843   -0.09443    1.07761
H     -2.06204   -0.56811   -0.64366
H      0.14072   -1.05590    1.69958
H     -0.67777   -2.30837    0.69399
H      1.83508   -1.70008   -0.10031
H      0.56343   -1.38424   -1.33811
H      2.00119    0.78986    0.60650
H      2.03866    0.80936   -1.18791
16
autodE path point 9. E = -17.806790294505 charge = 0 mult = 1 
C      0.22288    1.58271   -0.32135
C     -1.04100    1.25134   -0.09507
C     -1.60984   -0.07052    0.20840
C     -0.14233   -1.38391    0.70642
C      0.89878   -1.23556   -0.31888
C      1.41948    0.72776   -0.30769
H      0.44241    2.62555   -0.53677
H     -1.78808    2.03963   -0.14547
H     -2.24925   -0.08452    1.08155
H     -2.06958   -0.55808   -0.64310
H      0.14490   -1.08407    1.70415
H     -0.69157   -2.31789    0.68592
H      1.85151   -1.69877   -0.09065
H      0.57536   -1.41150   -1.33486
H      2.00313    0.80238    0.60221
H      2.03334    0.81574   -1.19484
16
autodE path point 10. E = -17.794492948098 charge = 0 mult = 1 
C      0.21889    1.59527   -0.32569
C     -1.04439    1.26500   -0.09250
C     -1.61987   -0.05104    0.21250
C     -0.14157   -1.41628    0.69942
C      0.91486   -1.26098   -0.30045
C      1.41750    0.74719   -0.32218
H      0.43633    2.63912   -0.54052
H     -1.78913    2.05644   -0.13690
H     -2.23735   -0.07026    1.10058
H     -2.09158   -0.53774   -0.63175
H      0.12499   -1.14765    1.71079
H     -0.72312   -2.32761    0.63483
H      1.87967   -1.67672   -0.03815
H      0.62643   -1.45675   -1.32262
H      2.01660    0.82881    0.57621
H      2.01186    0.81350   -1.22360
16
autodE path point 11. E = -17.782361948292 charge = 0 mult = 1 
C      0.21691    1.60461   -0.32497
C     -1.04732    1.27369   -0.09474
C     -1.62832   -0.03815    0.20797
C     -0.13152   -1.43970    0.70397
C      0.91791   -1.28631   -0.29598
C      1.41786    0.76284   -0.32489
H      0.43088    2.65044   -0.53531
H     -1.78927    2.06821   -0.13872
H     -2.23949   -0.06286    1.09977
H     -2.09578   -0.53005   -0.63514
H      0.13239   -1.17084    1.71569
H     -0.73674   -2.33441    0.63385
H      1.89424   -1.67356   -0.03410
H      0.63259   -1.48268   -1.31866
H      2.01962    0.84035    0.57163
H      2.00617    0.81872   -1.23040
16
autodE path point 12. E = -17.817358731976 charge = 0 mult = 1 
C      0.35627    1.54410   -0.13064
C     -0.93794    1.25432    0.27179
C     -1.56966    0.09057   -0.12934
C     -0.22558   -1.40302    0.65509
C      1.07117   -1.11249    0.25301
C      1.06287    0.67945   -0.94712
H      0.88595    2.34217    0.37176
H     -1.37100    1.83640    1.07437
H     -2.52100   -0.16929    0.30800
H     -1.41140   -0.29206   -1.12266
H     -0.51433   -1.20835    1.67394
H     -0.76576   -2.19356    0.16174
H      1.76096   -0.69776    0.96872
H      1.51668   -1.68329   -0.54477
H      2.10892    0.86613   -1.13231
H      0.55399    0.14697   -1.73162
