! Freq PBE0 RIJCOSX D3BJ def2-SVP def2/J 
%output 
xyzfile=True 
end 
%scf 
maxiter 250 
end
%output
Print[P_Hirshfeld] = 1
end
% maxcore
4000
%pal nprocs 8
end
*xyz 0 1
C    0.21691329   1.60460999  -0.32497021 
C   -1.04732083   1.27369177  -0.09473722 
C   -1.62831632  -0.03815331   0.20796981 
C   -0.13152271  -1.43969970   0.70397151 
C    0.91791491  -1.28631025  -0.29598329 
C    1.41785520   0.76284308  -0.32489174 
H    0.43087808   2.65044352  -0.53531113 
H   -1.78927335   2.06821229  -0.13872352 
H   -2.23949274  -0.06286165   1.09976819 
H   -2.09578334  -0.53005289  -0.63514457 
H    0.13238736  -1.17084313   1.71569032 
H   -0.73674022  -2.33441240   0.63385143 
H    1.89424474  -1.67355913  -0.03409577 
H    0.63258584  -1.48267876  -1.31865598 
H    2.01962098   0.84035436   0.57163014 
H    2.00616909   0.81871620  -1.23039797 
*
