! EnGrad PBE0 RIJCOSX D3BJ def2-SVP def2/J 
%output 
xyzfile=True 
end 
%scf 
maxiter 250 
end
%output
Print[P_Hirshfeld] = 1
end
% maxcore
4000
*xyz 0 2
O   -2.70373000   0.59911000   2.07742000 
O   -0.41387000  -0.42367000   0.82685000 
C   -0.73539000   0.13338000  -0.41828000 
C    0.14896000   0.85516000   0.53050000 
C    1.53752000   0.46710000   0.23583000 
C    1.36539000  -0.62141000  -0.51738000 
C    0.11334000  -0.67681000  -1.33602000 
H   -1.94111000   0.01632000   1.83821000 
H   -1.77758000   0.41926000  -0.59394000 
H   -0.20056000   1.69991000   1.12925000 
H    2.43060000   0.77688000   0.77538000 
H    2.19149000  -1.30136000  -0.75560000 
H    0.28400000  -0.25245000  -2.33948000 
H   -0.29906000  -1.69129000  -1.45273000 
*
