! EnGrad PBE0 RIJCOSX D3BJ def2-SVP def2/J 
%output 
xyzfile=True 
end 
%scf 
maxiter 250 
end
%output
Print[P_Hirshfeld] = 1
end
% maxcore
4000
*xyz 0 2
O   -2.72929149   0.56434597   2.12136876 
O   -0.57433797  -0.38917678   0.93479059 
C   -0.72820522   0.14191828  -0.41998273 
C    0.14995279   0.86048849   0.51660728 
C    1.54831538   0.46000188   0.21275341 
C    1.48789023  -0.59764306  -0.62296188 
C    0.12602650  -0.67566042  -1.34285778 
H   -1.95495567   0.01133107   1.85722548 
H   -1.77419650   0.42512706  -0.60279029 
H   -0.19230655   1.70911405   1.11962568 
H    2.44060468   0.78728113   0.76079837 
H    2.20117360  -1.36094033  -0.72115328 
H    0.30722451  -0.25465410  -2.34856377 
H   -0.30738842  -1.68091191  -1.46425194 
*
