! EnGrad PBE0 RIJCOSX D3BJ def2-SVP def2/J 
%output 
xyzfile=True 
end 
%scf 
maxiter 250 
end
%output
Print[P_Hirshfeld] = 1
end
% maxcore
4000
*xyz 0 2
O   -2.45904451   0.07451510   1.55079977 
O   -0.53773821  -0.30100126   0.83921307 
C   -0.72933499   0.21161368  -0.44956484 
C    0.15105134   0.90423217   0.52236619 
C    1.52352217   0.43558197   0.27037540 
C    1.37121589  -0.61969740  -0.53164472 
C    0.10570341  -0.66196657  -1.32536638 
H   -2.08023587   0.13522306   2.43586844 
H   -1.72836765   0.57455436  -0.70455185 
H   -0.15542611   1.78970954   1.08308956 
H    2.41632792   0.71631215   0.82728671 
H    2.18807453  -1.30985957  -0.76784025 
H    0.27032735  -0.28101568  -2.34772871 
H   -0.33607528  -1.66810546  -1.40230629 
*
