! EnGrad PBE0 RIJCOSX D3BJ def2-SVP def2/J 
%output 
xyzfile=True 
end 
%scf 
maxiter 250 
end
%output
Print[P_Hirshfeld] = 1
end
% maxcore
4000
*xyz 0 2
O   -2.50421345   0.07929794   1.56135107 
O   -0.61427744  -0.28626881   0.89620663 
C   -0.73022441   0.21196101  -0.44377053 
C    0.14491750   0.89921830   0.51921920 
C    1.52845417   0.41809207   0.26499662 
C    1.45832403  -0.60071898  -0.60706585 
C    0.11528841  -0.66422800  -1.32072853 
H   -2.07762126   0.14104510   2.44079937 
H   -1.73120099   0.57224590  -0.69864548 
H   -0.15431869   1.79277201   1.07997029 
H    2.41671313   0.71742486   0.83014477 
H    2.21567077  -1.33220075  -0.77336439 
H    0.26824399  -0.28053347  -2.34655031 
H   -0.33588747  -1.66781731  -1.40211045 
*
