14
Coordinates from ORCA-job path_opt1_orca E -344.360895063367
  O      -2.424868     -0.741463      0.714831
  O      -1.028892      0.119892      1.075368
  C      -0.582445      0.515367     -0.112777
  C       0.578807      1.353972      0.296204
  C       1.688045      0.587772      0.129272
  C       1.321641     -0.617505     -0.436034
  C      -0.079377     -0.710626     -0.791956
  H      -2.546608     -1.070151      1.620202
  H      -1.326618      1.072510     -0.709872
  H       0.505166      2.338392      0.758302
  H       2.704211      0.873485      0.413641
  H       2.034392     -1.415219     -0.659492
  H      -0.250477     -0.698090     -1.884766
  H      -0.592978     -1.608236     -0.412926
14
Coordinates from ORCA-job path_opt1_orca E -344.369666136922
  O      -2.426701     -0.756142      0.813452
  O      -1.019361      0.120404      1.081283
  C      -0.614802      0.528815     -0.152688
  C       0.560227      1.362847      0.265287
  C       1.682086      0.567033      0.155952
  C       1.329458     -0.643308     -0.419680
  C      -0.065826     -0.693833     -0.864228
  H      -2.497736     -1.058644      1.731225
  H      -1.373347      1.096798     -0.729728
  H       0.478003      2.344621      0.728725
  H       2.687149      0.837561      0.485327
  H       2.044125     -1.450873     -0.608302
  H      -0.181168     -0.666396     -1.965406
  H      -0.602107     -1.588784     -0.521220
14
Coordinates from ORCA-job path_opt1_orca E -344.372667421140
  O      -2.401908     -0.780141      0.866115
  O      -1.011256      0.134267      1.091091
  C      -0.642593      0.545775     -0.179426
  C       0.550997      1.371358      0.225762
  C       1.672477      0.545107      0.178249
  C       1.331826     -0.669362     -0.397950
  C      -0.063071     -0.670710     -0.907931
  H      -2.429994     -1.075024      1.788218
  H      -1.423287      1.105953     -0.724029
  H       0.470164      2.360168      0.675661
  H       2.667582      0.803753      0.544081
  H       2.037787     -1.489689     -0.552375
  H      -0.126339     -0.621183     -2.010413
  H      -0.632383     -1.560172     -0.597054
14
Coordinates from ORCA-job path_opt1_orca E -344.373248709928
  O      -2.391216     -0.789179      0.883709
  O      -1.009032      0.140406      1.098446
  C      -0.648158      0.546690     -0.183395
  C       0.550012      1.373104      0.206522
  C       1.666086      0.536508      0.185772
  C       1.330425     -0.680570     -0.386827
  C      -0.061853     -0.662252     -0.919359
  H      -2.406737     -1.081457      1.807054
  H      -1.447496      1.095695     -0.707981
  H       0.473548      2.370653      0.638856
  H       2.657154      0.793945      0.563906
  H       2.030130     -1.507550     -0.526993
  H      -0.094869     -0.584888     -2.020907
  H      -0.647992     -1.551005     -0.638804
14
Coordinates from ORCA-job path_opt1_orca E -344.373601298944
  O      -2.387596     -0.790672      0.890727
  O      -1.010217      0.145720      1.106756
  C      -0.648530      0.545210     -0.180675
  C       0.551447      1.374133      0.194422
  C       1.662811      0.533157      0.185266
  C       1.326878     -0.690147     -0.373925
  C      -0.063087     -0.658741     -0.919140
  H      -2.389713     -1.096844      1.809727
  H      -1.467071      1.080843     -0.688330
  H       0.482837      2.381990      0.603884
  H       2.652839      0.793569      0.564790
  H       2.019129     -1.524841     -0.500819
  H      -0.065882     -0.545484     -2.018212
  H      -0.663845     -1.547794     -0.674473
14
Coordinates from ORCA-job path_opt1_orca E -344.373714680535
  O      -2.391489     -0.784547      0.891030
  O      -1.012398      0.148234      1.111709
  C      -0.646903      0.544331     -0.176478
  C       0.553002      1.374821      0.191930
  C       1.662814      0.534048      0.181346
  C       1.323818     -0.694138     -0.366669
  C      -0.065685     -0.660090     -0.912734
  H      -2.380598     -1.114123      1.801868
  H      -1.473269      1.072694     -0.679822
  H       0.490533      2.388488      0.587169
  H       2.654039      0.798028      0.555493
  H       2.011231     -1.533973     -0.485326
  H      -0.053067     -0.523582     -2.009704
  H      -0.672027     -1.550091     -0.689813
14
Coordinates from ORCA-job path_opt1_orca E -344.373739589290
  O      -2.395960     -0.778541      0.891595
  O      -1.013399      0.148786      1.113543
  C      -0.646323      0.544475     -0.174453
  C       0.553387      1.375166      0.192435
  C       1.663413      0.535216      0.179214
  C       1.322474     -0.694744     -0.364717
  C      -0.067235     -0.661754     -0.908670
  H      -2.376241     -1.124722      1.796106
  H      -1.472190      1.071484     -0.680469
  H       0.493434      2.390405      0.583601
  H       2.655640      0.800952      0.549379
  H       2.007939     -1.536842     -0.479283
  H      -0.051072     -0.516970     -2.005003
  H      -0.673867     -1.552812     -0.693278
14
Coordinates from ORCA-job path_opt1_orca E -344.373746012840
  O      -2.398486     -0.775137      0.893158
  O      -1.013639      0.148958      1.114335
  C      -0.646624      0.544749     -0.173763
  C       0.553175      1.375282      0.192410
  C       1.663649      0.535647      0.178556
  C       1.321940     -0.694757     -0.364283
  C      -0.067774     -0.662371     -0.907404
  H      -2.373554     -1.130010      1.794166
  H      -1.470447      1.072086     -0.682775
  H       0.494054      2.390679      0.583227
  H       2.656272      0.802019      0.547091
  H       2.006505     -1.538006     -0.476165
  H      -0.051158     -0.514771     -2.003582
  H      -0.673911     -1.554269     -0.694973
