! LooseOpt PBE0 RIJCOSX D3BJ def2-SVP def2/J 
%geom Constraints
{ B 1 5 2.188689191475229 C }
{ B 0 1 2.8532111120306625 C }
    end
end
%geom MaxIter 50 end
%output 
xyzfile=True 
end 
%scf 
maxiter 250 
end
%output
Print[P_Hirshfeld] = 1
end
% maxcore
4000
%pal nprocs 8
end
*xyz 0 2
O   -2.70373406   0.59910718   2.07742157 
O   -0.41386735  -0.42367455   0.82685380 
C   -0.73538777   0.13337588  -0.41827961 
C    0.14895743   0.85515525   0.53049707 
C    1.53752041   0.46710340   0.23583089 
C    1.36539146  -0.62140995  -0.51738306 
C    0.11333633  -0.67681440  -1.33601889 
H   -1.94110875   0.01631551   1.83820865 
H   -1.77758282   0.41925829  -0.59394002 
H   -0.20056346   1.69990751   1.12924663 
H    2.43060401   0.77687504   0.77537767 
H    2.19149260  -1.30135888  -0.75559813 
H    0.28400255  -0.25244574  -2.33948356 
H   -0.29906061  -1.69129457  -1.45273300 
*
