14
Coordinates from ORCA-job path_opt6_orca E -344.360821464640
  O      -2.461555      0.633552      1.805395
  O      -0.414680     -0.391416      0.793797
  C      -0.743091      0.158888     -0.439869
  C       0.138337      0.872488      0.519032
  C       1.531321      0.436576      0.231941
  C       1.411817     -0.617855     -0.566933
  C       0.137264     -0.676506     -1.333776
  H      -2.297887     -0.119022      2.329388
  H      -1.773234      0.477321     -0.623560
  H      -0.213924      1.729540      1.096090
  H       2.420584      0.740541      0.782567
  H       2.247572     -1.281170     -0.817899
  H       0.284579     -0.265503     -2.347597
  H      -0.267103     -1.697335     -1.428574
14
Coordinates from ORCA-job path_opt6_orca E -344.365022341714
  O      -2.471051      0.650499      1.803711
  O      -0.428207     -0.397580      0.807767
  C      -0.732296      0.148657     -0.444210
  C       0.150133      0.864937      0.519722
  C       1.538199      0.450828      0.229882
  C       1.397746     -0.613486     -0.555403
  C       0.134698     -0.675316     -1.346337
  H      -2.306396     -0.136302      2.354408
  H      -1.761016      0.463645     -0.635108
  H      -0.196494      1.723697      1.097107
  H       2.430436      0.758969      0.774979
  H       2.229297     -1.280982     -0.800045
  H       0.290437     -0.264174     -2.359674
  H      -0.275486     -1.693293     -1.446800
14
Coordinates from ORCA-job path_opt6_orca E -344.365438311467
  O      -2.475054      0.654506      1.806365
  O      -0.433758     -0.399257      0.813249
  C      -0.726404      0.144258     -0.444895
  C       0.155229      0.861754      0.518878
  C       1.541906      0.458338      0.229235
  C       1.391913     -0.611704     -0.550841
  C       0.132504     -0.674030     -1.351342
  H      -2.309698     -0.134880      2.355307
  H      -1.757500      0.451055     -0.637683
  H      -0.188195      1.718429      1.101528
  H       2.434088      0.767361      0.772394
  H       2.223156     -1.282434     -0.794026
  H       0.290961     -0.262424     -2.362941
  H      -0.279149     -1.690872     -1.455230
14
Coordinates from ORCA-job path_opt6_orca E -344.365518089970
  O      -2.476515      0.656258      1.808729
  O      -0.435768     -0.397440      0.814416
  C      -0.723997      0.143881     -0.444754
  C       0.156388      0.862148      0.516265
  C       1.543453      0.461157      0.229631
  C       1.390077     -0.611659     -0.549165
  C       0.130909     -0.673268     -1.352995
  H      -2.307911     -0.134530      2.352208
  H      -1.757641      0.442869     -0.637781
  H      -0.185125      1.716436      1.103750
  H       2.435068      0.769391      0.773474
  H       2.220980     -1.284149     -0.791454
  H       0.290532     -0.261066     -2.363683
  H      -0.280451     -1.689927     -1.458641
14
Coordinates from ORCA-job path_opt6_orca E -344.365546763663
  O      -2.476909      0.657266      1.811286
  O      -0.436632     -0.395034      0.814533
  C      -0.723400      0.144792     -0.444321
  C       0.156034      0.863639      0.513687
  C       1.543734      0.461890      0.229849
  C       1.389447     -0.612124     -0.548281
  C       0.129882     -0.672851     -1.353243
  H      -2.303848     -0.136064      2.347896
  H      -1.758667      0.438401     -0.637736
  H      -0.184091      1.716499      1.104144
  H       2.434886      0.768962      0.774913
  H       2.219831     -1.285765     -0.789422
  H       0.290406     -0.259862     -2.363417
  H      -0.280673     -1.689649     -1.459890
14
Coordinates from ORCA-job path_opt6_orca E -344.365570887698
  O      -2.476957      0.658234      1.815020
  O      -0.437516     -0.392253      0.814648
  C      -0.723608      0.146226     -0.443841
  C       0.155121      0.865825      0.511113
  C       1.543318      0.462006      0.229902
  C       1.388809     -0.612761     -0.547286
  C       0.128903     -0.672633     -1.352857
  H      -2.296957     -0.139800      2.341396
  H      -1.759922      0.435614     -0.638517
  H      -0.183505      1.718002      1.103457
  H       2.434023      0.767665      0.776472
  H       2.218490     -1.287734     -0.786698
  H       0.290568     -0.258670     -2.362498
  H      -0.280769     -1.689621     -1.460309
