! LooseOpt PBE0 RIJCOSX D3BJ def2-SVP def2/J 
%geom Constraints
{ B 1 5 2.3398157440521055 C }
{ B 0 1 2.20271538054999 C }
    end
end
%geom MaxIter 50 end
%output 
xyzfile=True 
end 
%scf 
maxiter 250 
end
%output
Print[P_Hirshfeld] = 1
end
% maxcore
4000
%pal nprocs 8
end
*xyz 0 2
O   -2.23080625  -0.41281512   1.73449051 
O   -0.53916175  -0.28057517   0.87357397 
C   -0.73642627   0.24150026  -0.40558724 
C    0.17843659   0.91333141   0.54719929 
C    1.53655083   0.41034767   0.28249885 
C    1.35836075  -0.62173563  -0.54486417 
C    0.07073529  -0.63709398  -1.30495871 
H   -2.23101737   0.52063771   2.00119073 
H   -1.74833996   0.59400483  -0.62573184 
H   -0.08238489   1.81450057   1.10894287 
H    2.43694551   0.66388733   0.84044283 
H    2.16010987  -1.32175750  -0.80091064 
H    0.21410469  -0.24800776  -2.32731533 
H   -0.38710704  -1.63612463  -1.37897114 
*
