14
Coordinates from ORCA-job path_opt8_orca E -344.353283887464
  O      -2.723397      0.586227      2.104284
  O      -0.391245     -0.423678      0.807375
  C      -0.725493      0.136181     -0.428524
  C       0.158515      0.858098      0.521297
  C       1.535559      0.471387      0.236646
  C       1.348078     -0.613423     -0.507582
  C       0.111393     -0.673936     -1.338182
  H      -1.935540      0.010645      1.837603
  H      -1.768121      0.421700     -0.602202
  H      -0.192541      1.701007      1.121752
  H       2.429330      0.774950      0.778619
  H       2.170554     -1.300819     -0.737113
  H       0.286829     -0.260286     -2.345368
  H      -0.303920     -1.687954     -1.448604
14
Coordinates from ORCA-job path_opt8_orca E -344.354061977667
  O      -2.725775      0.573014      2.113419
  O      -0.393173     -0.422033      0.805878
  C      -0.729202      0.141767     -0.429799
  C       0.156564      0.863590      0.520449
  C       1.542495      0.476195      0.226843
  C       1.350530     -0.624860     -0.501302
  C       0.114859     -0.672809     -1.342242
  H      -1.952698      0.012369      1.850334
  H      -1.773063      0.425320     -0.601201
  H      -0.194547      1.704767      1.123660
  H       2.437654      0.782851      0.763788
  H       2.170838     -1.318134     -0.725199
  H       0.300350     -0.257553     -2.346894
  H      -0.304832     -1.684384     -1.457731
14
Coordinates from ORCA-job path_opt8_orca E -344.354101374588
  O      -2.726213      0.570774      2.114451
  O      -0.392502     -0.421189      0.806546
  C      -0.731060      0.142653     -0.429929
  C       0.155549      0.866074      0.518054
  C       1.544107      0.477054      0.225027
  C       1.351406     -0.628523     -0.499654
  C       0.115394     -0.672130     -1.343922
  H      -1.953730      0.012475      1.854431
  H      -1.775929      0.423032     -0.599384
  H      -0.195425      1.706225      1.122424
  H       2.439121      0.784536      0.762187
  H       2.170433     -1.323452     -0.721596
  H       0.305181     -0.254760     -2.346649
  H      -0.306330     -1.682668     -1.461986
