14
Coordinates from ORCA-job path_opt0_orca E -344.375152590555
  O      -2.626171     -0.483441      0.701034
  O      -1.221198      0.216915      1.126943
  C      -0.571598      0.511028     -0.026473
  C       0.612192      1.321418      0.373318
  C       1.737333      0.613230      0.061164
  C       1.383769     -0.593096     -0.521641
  C      -0.060515     -0.758913     -0.664888
  H      -2.595622     -1.276257      1.254747
  H      -1.235973      1.073526     -0.709866
  H       0.550094      2.292182      0.865484
  H       2.761153      0.945712      0.249751
  H       2.101936     -1.342763     -0.859222
  H      -0.382879     -0.875036     -1.714689
  H      -0.452520     -1.644405     -0.135661
14
Coordinates from ORCA-job path_opt0_orca E -344.380340522582
  O      -2.610138     -0.501642      0.739294
  O      -1.203003      0.207872      1.142292
  C      -0.601286      0.515417     -0.054908
  C       0.591926      1.326948      0.348503
  C       1.733792      0.595356      0.085256
  C       1.397336     -0.613963     -0.507746
  C      -0.054164     -0.748274     -0.722512
  H      -2.565795     -1.235060      1.371274
  H      -1.282634      1.088743     -0.718482
  H       0.521327      2.296143      0.840209
  H       2.752191      0.918676      0.309331
  H       2.125012     -1.368158     -0.820320
  H      -0.333686     -0.843614     -1.787110
  H      -0.470875     -1.638344     -0.225083
14
Coordinates from ORCA-job path_opt0_orca E -344.382340850365
  O      -2.590084     -0.543327      0.771250
  O      -1.191519      0.197900      1.146012
  C      -0.625663      0.519191     -0.085251
  C       0.577613      1.328307      0.320574
  C       1.729144      0.577084      0.107486
  C       1.411470     -0.631289     -0.496150
  C      -0.047219     -0.731883     -0.773791
  H      -2.544262     -1.184316      1.496193
  H      -1.326122      1.091663     -0.722042
  H       0.500861      2.298846      0.809720
  H       2.741033      0.891655      0.370298
  H       2.142956     -1.390805     -0.781965
  H      -0.282221     -0.797057     -1.850602
  H      -0.495987     -1.625869     -0.311733
14
Coordinates from ORCA-job path_opt0_orca E -344.382929434799
  O      -2.564861     -0.604340      0.776787
  O      -1.184058      0.173277      1.143586
  C      -0.629329      0.507953     -0.096666
  C       0.571203      1.323265      0.308240
  C       1.726953      0.569870      0.118355
  C       1.425646     -0.636083     -0.497811
  C      -0.033383     -0.725139     -0.804576
  H      -2.603965     -1.087766      1.615249
  H      -1.350216      1.073629     -0.713611
  H       0.488180      2.295933      0.792987
  H       2.732911      0.885735      0.401975
  H       2.160724     -1.394658     -0.774706
  H      -0.239541     -0.752588     -1.888735
  H      -0.500264     -1.628990     -0.381072
14
Coordinates from ORCA-job path_opt0_orca E -344.383214795687
  O      -2.537142     -0.657171      0.775028
  O      -1.178356      0.155685      1.147602
  C      -0.627722      0.497584     -0.095083
  C       0.569134      1.319150      0.303911
  C       1.726362      0.568484      0.119231
  C       1.433464     -0.639653     -0.497279
  C      -0.025798     -0.723411     -0.814394
  H      -2.655459     -1.012632      1.668002
  H      -1.368300      1.053246     -0.697399
  H       0.485231      2.296909      0.778525
  H       2.729426      0.889586      0.407924
  H       2.168575     -1.399655     -0.768506
  H      -0.211747     -0.713538     -1.902887
  H      -0.507671     -1.634483     -0.424676
14
Coordinates from ORCA-job path_opt0_orca E -344.383316502059
  O      -2.520892     -0.688016      0.771987
  O      -1.174183      0.140603      1.153576
  C      -0.624114      0.488660     -0.088040
  C       0.569079      1.315387      0.306034
  C       1.727706      0.571162      0.114201
  C       1.437985     -0.640668     -0.497483
  C      -0.021294     -0.725990     -0.813260
  H      -2.700010     -0.961745      1.683444
  H      -1.377041      1.036209     -0.682910
  H       0.486393      2.297077      0.772497
  H       2.730026      0.899469      0.397740
  H       2.172609     -1.401710     -0.766517
  H      -0.196569     -0.687439     -1.903469
  H      -0.509697     -1.642899     -0.447800
14
Coordinates from ORCA-job path_opt0_orca E -344.383332737450
  O      -2.520043     -0.690645      0.771956
  O      -1.173814      0.137547      1.156154
  C      -0.623642      0.487482     -0.085491
  C       0.569260      1.315187      0.306267
  C       1.728246      0.572186      0.112126
  C       1.438196     -0.641479     -0.496215
  C      -0.021008     -0.727031     -0.811254
  H      -2.706471     -0.958294      1.683722
  H      -1.378295      1.032785     -0.680299
  H       0.488478      2.298560      0.769389
  H       2.730692      0.902824      0.392513
  H       2.171936     -1.404414     -0.762352
  H      -0.192356     -0.678673     -1.902035
  H      -0.511179     -1.645934     -0.454482
14
Coordinates from ORCA-job path_opt0_orca E -344.383340734620
  O      -2.523889     -0.684117      0.772911
  O      -1.174554      0.138733      1.157697
  C      -0.624135      0.488396     -0.084414
  C       0.569347      1.316050      0.305167
  C       1.728298      0.572423      0.111285
  C       1.437124     -0.642500     -0.494154
  C      -0.021916     -0.727340     -0.809494
  H      -2.700158     -0.970025      1.681166
  H      -1.377807      1.033016     -0.680940
  H       0.490674      2.300620      0.766088
  H       2.730989      0.903891      0.389711
  H       2.169779     -1.407837     -0.756481
  H      -0.190523     -0.673888     -1.900685
  H      -0.513228     -1.647323     -0.457856
