14
Coordinates from ORCA-job path_opt3_orca E -344.344113465746
  O      -2.244500     -0.925890      0.929871
  O      -0.793823      0.120618      1.019828
  C      -0.631062      0.590932     -0.253130
  C       0.553866      1.426319      0.124968
  C       1.598260      0.530686      0.219980
  C       1.172429     -0.690174     -0.264132
  C      -0.117894     -0.613894     -0.976166
  H      -2.147765     -1.207463      1.852595
  H      -1.496580      1.118897     -0.682947
  H       0.510609      2.450617      0.493569
  H       2.576256      0.730800      0.661724
  H       1.792628     -1.590184     -0.250236
  H       0.014054     -0.471163     -2.065324
  H      -0.786479     -1.470000     -0.810601
14
Coordinates from ORCA-job path_opt3_orca E -344.346205467087
  O      -2.221392     -0.936794      0.989687
  O      -0.782116      0.128559      1.024947
  C      -0.651936      0.584837     -0.270537
  C       0.533348      1.417579      0.118278
  C       1.587681      0.513984      0.232657
  C       1.170398     -0.710088     -0.262082
  C      -0.099502     -0.604579     -1.024496
  H      -2.132406     -1.142889      1.932306
  H      -1.529425      1.110267     -0.682489
  H       0.480128      2.438943      0.492780
  H       2.555481      0.710976      0.696329
  H       1.788386     -1.612351     -0.240506
  H       0.075278     -0.436982     -2.104902
  H      -0.773924     -1.461362     -0.901972
14
Coordinates from ORCA-job path_opt3_orca E -344.346455582478
  O      -2.208117     -0.947720      0.987508
  O      -0.779111      0.131394      1.021967
  C      -0.658603      0.586789     -0.277620
  C       0.528225      1.414075      0.125252
  C       1.593171      0.513001      0.225479
  C       1.173482     -0.713701     -0.260717
  C      -0.099220     -0.603371     -1.030537
  H      -2.135549     -1.118905      1.938150
  H      -1.542749      1.107042     -0.677046
  H       0.472422      2.433706      0.504985
  H       2.559714      0.709707      0.691460
  H       1.787659     -1.617455     -0.231452
  H       0.085265     -0.434546     -2.107234
  H      -0.776589     -1.459915     -0.910196
14
Coordinates from ORCA-job path_opt3_orca E -344.346510608871
  O      -2.199291     -0.953440      0.990953
  O      -0.772783      0.129158      1.019092
  C      -0.659429      0.584285     -0.282655
  C       0.525095      1.410036      0.128161
  C       1.593041      0.511158      0.225840
  C       1.178029     -0.712517     -0.268542
  C      -0.098224     -0.603546     -1.036137
  H      -2.145148     -1.090394      1.948286
  H      -1.549301      1.099941     -0.673136
  H       0.465664      2.427737      0.512573
  H       2.555958      0.707387      0.699372
  H       1.791048     -1.616660     -0.236994
  H       0.088985     -0.431488     -2.111496
  H      -0.773644     -1.461556     -0.915316
14
Coordinates from ORCA-job path_opt3_orca E -344.346528953006
  O      -2.197738     -0.953970      0.993097
  O      -0.769082      0.125876      1.017775
  C      -0.658442      0.581342     -0.284939
  C       0.522844      1.406628      0.132661
  C       1.593795      0.510713      0.224065
  C       1.181205     -0.710657     -0.273997
  C      -0.096916     -0.604523     -1.038476
  H      -2.156211     -1.070641      1.953684
  H      -1.552212      1.093741     -0.670512
  H       0.460732      2.422961      0.520197
  H       2.555291      0.707675      0.700042
  H       1.794604     -1.614620     -0.243483
  H       0.091544     -0.430091     -2.113462
  H      -0.769413     -1.464334     -0.916650
14
Coordinates from ORCA-job path_opt3_orca E -344.346531262801
  O      -2.198668     -0.951536      0.993810
  O      -0.768500      0.126328      1.017538
  C      -0.657932      0.581206     -0.285530
  C       0.522414      1.406260      0.133364
  C       1.593401      0.510197      0.224820
  C       1.181348     -0.710325     -0.274819
  C      -0.096866     -0.604800     -1.038427
  H      -2.155571     -1.070639      1.954023
  H      -1.552238      1.092918     -0.671038
  H       0.460023      2.422693      0.520404
  H       2.554570      0.707497      0.701322
  H       1.794984     -1.614282     -0.245789
  H       0.091710     -0.430377     -2.113483
  H      -0.768675     -1.465041     -0.916196
