14
Coordinates from ORCA-job path_opt4_orca E -344.333971282378
  O      -2.229207     -1.014721      0.990859
  O      -0.711730      0.133141      0.992564
  C      -0.635932      0.598824     -0.295402
  C       0.541626      1.425523      0.118329
  C       1.593644      0.522995      0.221018
  C       1.154747     -0.692369     -0.257934
  C      -0.108844     -0.596858     -1.030540
  H      -2.161752     -1.144767      1.948622
  H      -1.527317      1.116820     -0.679345
  H       0.488007      2.444125      0.501087
  H       2.556457      0.708139      0.699238
  H       1.754628     -1.605012     -0.208622
  H       0.075545     -0.448540     -2.110567
  H      -0.789871     -1.447201     -0.889307
14
Coordinates from ORCA-job path_opt4_orca E -344.335897920470
  O      -2.200321     -1.008760      1.024070
  O      -0.697305      0.157482      0.990172
  C      -0.651005      0.592685     -0.312752
  C       0.516364      1.410799      0.131784
  C       1.586044      0.510409      0.224557
  C       1.152446     -0.705250     -0.260054
  C      -0.098134     -0.595355     -1.061280
  H      -2.134128     -1.082654      1.988394
  H      -1.548641      1.107812     -0.689178
  H       0.450420      2.422109      0.531863
  H       2.541382      0.693240      0.717596
  H       1.751824     -1.618775     -0.207034
  H       0.112620     -0.437558     -2.135933
  H      -0.781567     -1.446083     -0.942205
14
Coordinates from ORCA-job path_opt4_orca E -344.339177252511
  O      -2.176803     -0.954230      1.064286
  O      -0.670029      0.203338      0.964312
  C      -0.670263      0.583297     -0.354258
  C       0.469020      1.373829      0.178761
  C       1.581877      0.493904      0.224951
  C       1.160589     -0.712974     -0.275913
  C      -0.088042     -0.600567     -1.098277
  H      -2.067192     -0.992438      2.026578
  H      -1.575080      1.091149     -0.720369
  H       0.376682      2.367258      0.616769
  H       2.522877      0.672164      0.745262
  H       1.761507     -1.624958     -0.218692
  H       0.145768     -0.445930     -2.166676
  H      -0.770913     -1.453743     -0.986733
14
Coordinates from ORCA-job path_opt4_orca E -344.346636179094
  O      -2.146614     -0.870748      1.158092
  O      -0.635502      0.260358      0.918376
  C      -0.676450      0.556815     -0.408824
  C       0.403121      1.312253      0.228694
  C       1.552057      0.451824      0.259278
  C       1.173557     -0.705550     -0.315834
  C      -0.068476     -0.603327     -1.140208
  H      -1.997962     -0.855994      2.115633
  H      -1.580231      1.052869     -0.788798
  H       0.275180      2.285604      0.698962
  H       2.470473      0.623536      0.820212
  H       1.788866     -1.609629     -0.289670
  H       0.172533     -0.422183     -2.203057
  H      -0.730551     -1.475727     -1.052853
14
Coordinates from ORCA-job path_opt4_orca E -344.345727114743
  O      -2.116310     -0.773535      1.253440
  O      -0.599256      0.310022      0.872946
  C      -0.675402      0.526925     -0.456063
  C       0.339373      1.250146      0.262113
  C       1.512602      0.403135      0.301185
  C       1.190074     -0.690238     -0.362662
  C      -0.047944     -0.604933     -1.177988
  H      -1.928454     -0.716077      2.202218
  H      -1.578478      1.009063     -0.850980
  H       0.170817      2.196830      0.769165
  H       2.402210      0.562683      0.910154
  H       1.824759     -1.581608     -0.374371
  H       0.188855     -0.393499     -2.237401
  H      -0.682847     -1.498814     -1.111756
14
Coordinates from ORCA-job path_opt4_orca E -344.349492788654
  O      -2.184220     -0.780336      1.216777
  O      -0.629243      0.264660      0.884579
  C      -0.679939      0.544672     -0.439636
  C       0.380595      1.295983      0.254766
  C       1.539269      0.425725      0.305726
  C       1.189864     -0.688205     -0.344993
  C      -0.063895     -0.610192     -1.148689
  H      -1.950601     -0.859093      2.154990
  H      -1.575626      1.038934     -0.841125
  H       0.254572      2.280138      0.705049
  H       2.446016      0.591460      0.886662
  H       1.821368     -1.582165     -0.361424
  H       0.154141     -0.421511     -2.215523
  H      -0.702300     -1.499970     -1.057159
14
Coordinates from ORCA-job path_opt4_orca E -344.349891377921
  O      -2.208104     -0.744279      1.230677
  O      -0.623472      0.249877      0.882944
  C      -0.675347      0.533142     -0.441179
  C       0.374644      1.283805      0.261782
  C       1.546975      0.430611      0.292290
  C       1.199238     -0.681376     -0.357800
  C      -0.055335     -0.613776     -1.157127
  H      -1.973400     -0.824985      2.167889
  H      -1.571768      1.026602     -0.839406
  H       0.230717      2.249241      0.745199
  H       2.450357      0.596797      0.877825
  H       1.835441     -1.571938     -0.378288
  H       0.156712     -0.425425     -2.225346
  H      -0.686657     -1.508197     -1.059460
14
Coordinates from ORCA-job path_opt4_orca E -344.350241130143
  O      -2.243404     -0.680459      1.266342
  O      -0.608881      0.212068      0.876399
  C      -0.673416      0.509294     -0.444215
  C       0.358918      1.259791      0.276958
  C       1.547687      0.424273      0.296869
  C       1.222053     -0.670776     -0.387411
  C      -0.038636     -0.617733     -1.175900
  H      -2.011504     -0.745720      2.205085
  H      -1.574724      0.999140     -0.833725
  H       0.196341      2.210539      0.782372
  H       2.444607      0.593645      0.890795
  H       1.874671     -1.548956     -0.432692
  H       0.157697     -0.419855     -2.245009
  H      -0.651409     -1.525152     -1.075868
14
Coordinates from ORCA-job path_opt4_orca E -344.350604238463
  O      -2.292100     -0.595055      1.312644
  O      -0.588383      0.127828      0.870925
  C      -0.673550      0.464485     -0.440203
  C       0.335476      1.218492      0.304512
  C       1.551579      0.417880      0.298049
  C       1.259495     -0.656407     -0.432636
  C      -0.010618     -0.622789     -1.208120
  H      -2.088401     -0.571740      2.259620
  H      -1.588491      0.945323     -0.806816
  H       0.142833      2.142018      0.848405
  H       2.442072      0.594857      0.898874
  H       1.939866     -1.510740     -0.516086
  H       0.163154     -0.402910     -2.276225
  H      -0.592931     -1.551143     -1.112943
14
Coordinates from ORCA-job path_opt4_orca E -344.350924492651
  O      -2.337175     -0.485365      1.360172
  O      -0.576154      0.036849      0.863762
  C      -0.676540      0.416589     -0.436100
  C       0.309276      1.174165      0.332275
  C       1.548735      0.409054      0.302649
  C       1.291041     -0.643837     -0.470104
  C       0.016829     -0.625804     -1.239522
  H      -2.130983     -0.409181      2.303638
  H      -1.605809      0.885048     -0.780658
  H       0.089514      2.072764      0.906997
  H       2.433641      0.594558      0.909070
  H       1.999037     -1.471165     -0.589002
  H       0.173721     -0.379451     -2.304190
  H      -0.535134     -1.574125     -1.158989
14
Coordinates from ORCA-job path_opt4_orca E -344.351099567723
  O      -2.351860     -0.429298      1.364715
  O      -0.576273      0.037642      0.865132
  C      -0.679154      0.414979     -0.436012
  C       0.310651      1.178697      0.325298
  C       1.547789      0.411468      0.300666
  C       1.291162     -0.649096     -0.465291
  C       0.018496     -0.625837     -1.240590
  H      -2.113609     -0.463735      2.303225
  H      -1.613697      0.876561     -0.775966
  H       0.090511      2.078470      0.898629
  H       2.432537      0.598215      0.907334
  H       1.997514     -1.478589     -0.575842
  H       0.181073     -0.375544     -2.303291
  H      -0.535140     -1.573834     -1.168007
14
Coordinates from ORCA-job path_opt4_orca E -344.351298765286
  O      -2.375583     -0.301745      1.391796
  O      -0.569239     -0.013399      0.868056
  C      -0.684994      0.378499     -0.427994
  C       0.296556      1.155817      0.333128
  C       1.541667      0.408885      0.296643
  C       1.305486     -0.651574     -0.476223
  C       0.035498     -0.626293     -1.256310
  H      -2.119672     -0.416022      2.319398
  H      -1.639592      0.812614     -0.746880
  H       0.061117      2.042763      0.920515
  H       2.425498      0.602339      0.903505
  H       2.025033     -1.468000     -0.592799
  H       0.199893     -0.338066     -2.309542
  H      -0.501667     -1.585717     -1.223294
14
Coordinates from ORCA-job path_opt4_orca E -344.351404042956
  O      -2.361219     -0.383300      1.377050
  O      -0.569391      0.002630      0.866425
  C      -0.683525      0.390008     -0.430785
  C       0.300197      1.160754      0.336062
  C       1.545441      0.409160      0.298464
  C       1.302049     -0.648375     -0.476279
  C       0.028714     -0.626941     -1.251537
  H      -2.125638     -0.384444      2.316928
  H      -1.630799      0.834472     -0.757559
  H       0.068893      2.049114      0.922959
  H       2.429368      0.598095      0.906050
  H       2.017632     -1.468574     -0.593326
  H       0.189782     -0.348213     -2.307657
  H      -0.511505     -1.584286     -1.206796
14
Coordinates from ORCA-job path_opt4_orca E -344.351575345295
  O      -2.331900     -0.495363      1.357392
  O      -0.570054      0.029337      0.866560
  C      -0.680964      0.409283     -0.433388
  C       0.307456      1.169167      0.341450
  C       1.551953      0.410677      0.298655
  C       1.295227     -0.643742     -0.473829
  C       0.016664     -0.628713     -1.238844
  H      -2.146353     -0.363160      2.299231
  H      -1.615748      0.870269     -0.773382
  H       0.087207      2.065338      0.920632
  H       2.438898      0.594520      0.902797
  H       2.004404     -1.469939     -0.591581
  H       0.171362     -0.365398     -2.300020
  H      -0.528154     -1.582174     -1.175674
14
Coordinates from ORCA-job path_opt4_orca E -344.351654110919
  O      -2.307138     -0.564457      1.359056
  O      -0.563860      0.020054      0.869510
  C      -0.681662      0.408247     -0.429175
  C       0.306788      1.161560      0.354213
  C       1.556748      0.411619      0.296127
  C       1.298653     -0.638261     -0.482012
  C       0.014255     -0.629601     -1.237016
  H      -2.187269     -0.279173      2.277281
  H      -1.614274      0.874655     -0.767448
  H       0.087721      2.055452      0.937620
  H       2.445619      0.593884      0.897756
  H       2.009848     -1.461794     -0.607363
  H       0.160205     -0.366625     -2.299528
  H      -0.525633     -1.585460     -1.169021
14
Coordinates from ORCA-job path_opt4_orca E -344.351776236173
  O      -2.277691     -0.633294      1.364265
  O      -0.557161      0.015235      0.874865
  C      -0.681319      0.410504     -0.422952
  C       0.308989      1.155217      0.367478
  C       1.562895      0.413566      0.291899
  C       1.300470     -0.632687     -0.488349
  C       0.009829     -0.630356     -1.230697
  H      -2.238458     -0.214862      2.237629
  H      -1.610434      0.884462     -0.759828
  H       0.094940      2.051276      0.949709
  H       2.455846      0.595068      0.887583
  H       2.013102     -1.453789     -0.622432
  H       0.145180     -0.372681     -2.296108
  H      -0.526189     -1.587558     -1.153063
14
Coordinates from ORCA-job path_opt4_orca E -344.351933694274
  O      -2.219275     -0.735414      1.385180
  O      -0.541201      0.012858      0.890731
  C      -0.682395      0.414095     -0.406042
  C       0.316514      1.149721      0.385522
  C       1.574673      0.418634      0.282140
  C       1.302177     -0.628258     -0.494866
  C       0.000567     -0.630188     -1.218433
  H      -2.330649     -0.130738      2.134793
  H      -1.611485      0.894254     -0.733896
  H       0.111925      2.050393      0.964612
  H       2.475903      0.599893      0.865213
  H       2.014973     -1.447372     -0.639982
  H       0.120807     -0.379844     -2.287341
  H      -0.532533     -1.587932     -1.127631
14
Coordinates from ORCA-job path_opt4_orca E -344.352281500925
  O      -2.149995     -0.826663      1.415501
  O      -0.524571      0.024176      0.911123
  C      -0.683503      0.424429     -0.385852
  C       0.328908      1.150823      0.402642
  C       1.588630      0.424863      0.270224
  C       1.299530     -0.627411     -0.494949
  C      -0.013419     -0.629092     -1.199671
  H      -2.426222     -0.097253      1.992350
  H      -1.612490      0.911262     -0.704837
  H       0.139671      2.062052      0.971126
  H       2.500968      0.606554      0.835556
  H       2.008839     -1.447841     -0.649222
  H       0.092457     -0.391920     -2.272907
  H      -0.548803     -1.583879     -1.091084
14
Coordinates from ORCA-job path_opt4_orca E -344.352902431937
  O      -2.073337     -0.903521      1.451908
  O      -0.511504      0.050751      0.931936
  C      -0.685442      0.443538     -0.367302
  C       0.343289      1.157505      0.420468
  C       1.602957      0.431122      0.257794
  C       1.291550     -0.631708     -0.486581
  C      -0.031170     -0.625963     -1.177233
  H      -2.508189     -0.120679      1.827053
  H      -1.612750      0.939209     -0.679878
  H       0.175120      2.085830      0.968690
  H       2.528077      0.613383      0.801718
  H       1.993171     -1.457512     -0.646574
  H       0.064850     -0.409151     -2.255217
  H      -0.576622     -1.572705     -1.046781
14
Coordinates from ORCA-job path_opt4_orca E -344.353773732536
  O      -2.008280     -0.951624      1.500207
  O      -0.506998      0.077926      0.946579
  C      -0.688794      0.464529     -0.356835
  C       0.350949      1.158559      0.447137
  C       1.614150      0.435336      0.246869
  C       1.281884     -0.640970     -0.471885
  C      -0.045008     -0.619968     -1.160531
  H      -2.561275     -0.171768      1.674916
  H      -1.613815      0.969923     -0.664468
  H       0.205788      2.110199      0.962691
  H       2.552298      0.621150      0.766932
  H       1.976486     -1.470973     -0.639306
  H       0.049371     -0.427244     -2.242411
  H      -0.606755     -1.554974     -1.009895
14
Coordinates from ORCA-job path_opt4_orca E -344.354347336225
  O      -1.996702     -0.950290      1.559305
  O      -0.511591      0.072313      0.951805
  C      -0.688404      0.468123     -0.356382
  C       0.344269      1.138597      0.481930
  C       1.615756      0.435648      0.240201
  C       1.279705     -0.648755     -0.462504
  C      -0.041495     -0.614071     -1.160275
  H      -2.585052     -0.177851      1.603570
  H      -1.615570      0.975289     -0.654587
  H       0.212838      2.114097      0.956156
  H       2.563080      0.631832      0.740287
  H       1.978851     -1.470568     -0.648924
  H       0.058698     -0.431154     -2.242834
  H      -0.614383     -1.543109     -1.007749
14
Coordinates from ORCA-job path_opt4_orca E -344.354544304121
  O      -2.037585     -0.898859      1.600852
  O      -0.507341      0.026397      0.950789
  C      -0.685946      0.443731     -0.355024
  C       0.333863      1.113191      0.491784
  C       1.612361      0.436801      0.238774
  C       1.292956     -0.641297     -0.478219
  C      -0.027393     -0.616961     -1.172661
  H      -2.588477     -0.098875      1.610386
  H      -1.623603      0.938227     -0.636883
  H       0.188270      2.083057      0.973055
  H       2.556393      0.638672      0.743352
  H       2.005397     -1.447975     -0.679902
  H       0.067770     -0.419543     -2.253359
  H      -0.586664     -1.556467     -1.032946
14
Coordinates from ORCA-job path_opt4_orca E -344.354605919923
  O      -2.053229     -0.861418      1.639230
  O      -0.504819     -0.000177      0.945677
  C      -0.686831      0.430573     -0.359676
  C       0.324649      1.096303      0.497372
  C       1.609609      0.437289      0.240747
  C       1.301868     -0.636891     -0.489395
  C      -0.019221     -0.619130     -1.184454
  H      -2.583774     -0.048445      1.614270
  H      -1.632359      0.915561     -0.629228
  H       0.167849      2.060138      0.987506
  H       2.549064      0.639550      0.753509
  H       2.022056     -1.434912     -0.697720
  H       0.075528     -0.413375     -2.263485
  H      -0.570392     -1.564965     -1.054355
14
Coordinates from ORCA-job path_opt4_orca E -344.354632222284
  O      -2.054476     -0.848118      1.660952
  O      -0.507174     -0.007963      0.939618
  C      -0.687612      0.428208     -0.365954
  C       0.320123      1.090551      0.498658
  C       1.607840      0.436281      0.243449
  C       1.304648     -0.635434     -0.493048
  C      -0.016050     -0.620141     -1.190397
  H      -2.580136     -0.032390      1.624316
  H      -1.635861      0.909518     -0.632885
  H       0.158864      2.052066      0.992224
  H       2.544936      0.636906      0.760853
  H       2.027386     -1.430910     -0.702354
  H       0.081935     -0.410321     -2.268573
  H      -0.564423     -1.568154     -1.066857
14
Coordinates from ORCA-job path_opt4_orca E -344.354650624934
  O      -2.055697     -0.833157      1.685159
  O      -0.510125     -0.016400      0.933867
  C      -0.688816      0.424495     -0.371100
  C       0.315340      1.085007      0.499691
  C       1.605727      0.434638      0.245588
  C       1.307058     -0.634780     -0.495959
  C      -0.012352     -0.620792     -1.196475
  H      -2.576952     -0.015401      1.633468
  H      -1.639729      0.901354     -0.636667
  H       0.149317      2.043531      0.997629
  H       2.541407      0.634908      0.765595
  H       2.032334     -1.427754     -0.705944
  H       0.090332     -0.404282     -2.273078
  H      -0.557844     -1.571267     -1.081775
14
Coordinates from ORCA-job path_opt4_orca E -344.354669697532
  O      -2.058497     -0.807315      1.721611
  O      -0.513871     -0.031098      0.926661
  C      -0.690594      0.416042     -0.376846
  C       0.307297      1.075309      0.502079
  C       1.601884      0.431548      0.248717
  C       1.310651     -0.634175     -0.500353
  C      -0.005956     -0.621272     -1.205979
  H      -2.572586      0.013082      1.646038
  H      -1.644875      0.886544     -0.641647
  H       0.134146      2.029489      1.005876
  H       2.535871      0.633367      0.771135
  H       2.040248     -1.422515     -0.712683
  H       0.103102     -0.393172     -2.279709
  H      -0.546819     -1.575734     -1.104899
14
Coordinates from ORCA-job path_opt4_orca E -344.354690725627
  O      -2.063753     -0.761377      1.776135
  O      -0.518377     -0.058182      0.917266
  C      -0.693832      0.399211     -0.383282
  C       0.293995      1.058069      0.506843
  C       1.595749      0.427239      0.252892
  C       1.316835     -0.633355     -0.507557
  C       0.004557     -0.621689     -1.221289
  H      -2.564793      0.062568      1.661971
  H      -1.653186      0.860118     -0.646506
  H       0.109290      2.004832      1.020379
  H       2.526795      0.633233      0.778912
  H       2.053849     -1.413388     -0.724679
  H       0.121246     -0.374634     -2.290024
  H      -0.528374     -1.582545     -1.141061
14
Coordinates from ORCA-job path_opt4_orca E -344.354763779488
  O      -2.066433     -0.655788      1.880813
  O      -0.528522     -0.119452      0.897198
  C      -0.702337      0.360569     -0.396872
  C       0.262688      1.017605      0.518214
  C       1.580042      0.417489      0.263375
  C       1.329398     -0.631132     -0.522402
  C       0.026561     -0.622138     -1.253822
  H      -2.537580      0.173174      1.697475
  H      -1.671793      0.801714     -0.656285
  H       0.053452      1.948443      1.051178
  H       2.502995      0.632555      0.799981
  H       2.083222     -1.391566     -0.750545
  H       0.156100     -0.335627     -2.311102
  H      -0.487793     -1.595746     -1.217205
14
Coordinates from ORCA-job path_opt4_orca E -344.354940878450
  O      -2.057111     -0.547422      1.967647
  O      -0.542260     -0.183424      0.875375
  C      -0.714085      0.320433     -0.412170
  C       0.226784      0.973591      0.530950
  C       1.560630      0.407647      0.275806
  C       1.340078     -0.629881     -0.534033
  C       0.047743     -0.621847     -1.286199
  H      -2.488200      0.292096      1.739425
  H      -1.694000      0.740170     -0.666790
  H      -0.007018      1.888660      1.081216
  H       2.473549      0.631593      0.825878
  H       2.111602     -1.369035     -0.772139
  H       0.190011     -0.296434     -2.330306
  H      -0.447723     -1.606046     -1.294660
14
Coordinates from ORCA-job path_opt4_orca E -344.355576417921
  O      -2.120991     -0.469809      1.906778
  O      -0.541115     -0.257085      0.867996
  C      -0.728508      0.270705     -0.411372
  C       0.192864      0.924227      0.553413
  C       1.542685      0.407201      0.284825
  C       1.354541     -0.619400     -0.547689
  C       0.064275     -0.626659     -1.304237
  H      -2.359593      0.466995      1.816945
  H      -1.726498      0.658616     -0.641902
  H      -0.060046      1.828944      1.113327
  H       2.443774      0.639180      0.851270
  H       2.150287     -1.324460     -0.808246
  H       0.195404     -0.276093     -2.341893
  H      -0.407078     -1.622262     -1.339216
14
Coordinates from ORCA-job path_opt4_orca E -344.355890870490
  O      -2.154275     -0.348316      1.875823
  O      -0.549972     -0.332762      0.852938
  C      -0.746633      0.215635     -0.416587
  C       0.150758      0.875064      0.566300
  C       1.516426      0.403288      0.297939
  C       1.363246     -0.608840     -0.558561
  C       0.080738     -0.630839     -1.326828
  H      -2.205648      0.620995      1.896418
  H      -1.759146      0.568288     -0.637502
  H      -0.129271      1.755409      1.151920
  H       2.403827      0.644807      0.881760
  H       2.179608     -1.286836     -0.827090
  H       0.210741     -0.238283     -2.349614
  H      -0.360399     -1.637509     -1.406916
14
Coordinates from ORCA-job path_opt4_orca E -344.356046892683
  O      -2.164388     -0.422433      1.849818
  O      -0.539178     -0.288386      0.869486
  C      -0.737163      0.242206     -0.405536
  C       0.178574      0.905121      0.558449
  C       1.535329      0.408604      0.285242
  C       1.358894     -0.616655     -0.551256
  C       0.070139     -0.631428     -1.309293
  H      -2.284807      0.540738      1.873527
  H      -1.744250      0.608897     -0.629862
  H      -0.083093      1.799492      1.130880
  H       2.433512      0.650886      0.851834
  H       2.162236     -1.312572     -0.813176
  H       0.201065     -0.252311     -2.336951
  H      -0.386870     -1.632058     -1.373162
14
Coordinates from ORCA-job path_opt4_orca E -344.356082137787
  O      -2.163187     -0.413578      1.856502
  O      -0.542390     -0.291931      0.867288
  C      -0.738428      0.238242     -0.407404
  C       0.173999      0.902053      0.556596
  C       1.532760      0.405683      0.287231
  C       1.358201     -0.617932     -0.550607
  C       0.071751     -0.632566     -1.311369
  H      -2.278013      0.549930      1.889604
  H      -1.745168      0.602076     -0.636690
  H      -0.089511      1.795401      1.129543
  H       2.431471      0.653815      0.850246
  H       2.161682     -1.314609     -0.810282
  H       0.208797     -0.242784     -2.334292
  H      -0.381962     -1.633701     -1.386367
14
Coordinates from ORCA-job path_opt4_orca E -344.356087574085
  O      -2.165457     -0.417015      1.851976
  O      -0.541182     -0.291343      0.868989
  C      -0.737270      0.240146     -0.405341
  C       0.176273      0.903480      0.556390
  C       1.534712      0.406033      0.286346
  C       1.358134     -0.618263     -0.550402
  C       0.070616     -0.632568     -1.309642
  H      -2.284798      0.545942      1.885825
  H      -1.743915      0.604388     -0.633890
  H      -0.086596      1.796951      1.129429
  H       2.434528      0.654974      0.847206
  H       2.161240     -1.314689     -0.811955
  H       0.207867     -0.244553     -2.333171
  H      -0.384153     -1.633385     -1.381760
14
Coordinates from ORCA-job path_opt4_orca E -344.356089799072
  O      -2.166291     -0.419626      1.849599
  O      -0.540573     -0.289712      0.869554
  C      -0.736403      0.242212     -0.404965
  C       0.177422      0.903966      0.556801
  C       1.536067      0.405934      0.286077
  C       1.358124     -0.618523     -0.550229
  C       0.069958     -0.632552     -1.308761
  H      -2.290204      0.542768      1.884971
  H      -1.743023      0.606623     -0.633315
  H      -0.084895      1.797955      1.129332
  H       2.436588      0.655344      0.845568
  H       2.161158     -1.314247     -0.813932
  H       0.207986     -0.246959     -2.333060
  H      -0.385915     -1.633083     -1.377640
14
Coordinates from ORCA-job path_opt4_orca E -344.356090399020
  O      -2.166577     -0.417080      1.849084
  O      -0.540256     -0.291083      0.869529
  C      -0.736657      0.241374     -0.404744
  C       0.177022      0.903136      0.557391
  C       1.535955      0.405893      0.286166
  C       1.358439     -0.618295     -0.550626
  C       0.070110     -0.632542     -1.309079
  H      -2.289297      0.545483      1.884612
  H      -1.743971      0.604331     -0.632490
  H      -0.085751      1.796492      1.130710
  H       2.436418      0.655505      0.845640
  H       2.161702     -1.313614     -0.814707
  H       0.208190     -0.246261     -2.333104
  H      -0.385327     -1.633238     -1.378383
14
Coordinates from ORCA-job path_opt4_orca E -344.356912548043
  O      -2.236565     -0.398150      1.719948
  O      -0.532876     -0.292435      0.879356
  C      -0.738060      0.233253     -0.395252
  C       0.178511      0.903605      0.556393
  C       1.538020      0.411445      0.281707
  C       1.360092     -0.617119     -0.549000
  C       0.069340     -0.639058     -1.300555
  H      -2.233366      0.538690      1.974697
  H      -1.748906      0.587933     -0.615858
  H      -0.079156      1.802286      1.123795
  H       2.439251      0.668683      0.836547
  H       2.165334     -1.309861     -0.814148
  H       0.200789     -0.248254     -2.323968
  H      -0.382407     -1.640919     -1.373661
14
Coordinates from ORCA-job path_opt4_orca E -344.356947111891
  O      -2.239001     -0.409058      1.710503
  O      -0.528799     -0.284024      0.885941
  C      -0.737849      0.235654     -0.391117
  C       0.183414      0.910658      0.553464
  C       1.541260      0.411465      0.279353
  C       1.359292     -0.621812     -0.545827
  C       0.067095     -0.638988     -1.297392
  H      -2.245481      0.525530      1.973416
  H      -1.751400      0.584282     -0.608109
  H      -0.070669      1.814477      1.114171
  H       2.445292      0.670802      0.828614
  H       2.161387     -1.319338     -0.807607
  H       0.203812     -0.241047     -2.317314
  H      -0.388351     -1.638501     -1.378097
14
Coordinates from ORCA-job path_opt4_orca E -344.356903599843
  O      -2.221930     -0.413039      1.757703
  O      -0.546564     -0.281781      0.865376
  C      -0.738792      0.244102     -0.415342
  C       0.172560      0.912741      0.544376
  C       1.533986      0.409683      0.286453
  C       1.358077     -0.622733     -0.543539
  C       0.072433     -0.637540     -1.310662
  H      -2.219381      0.522386      2.017280
  H      -1.748050      0.600004     -0.641552
  H      -0.090512      1.813572      1.105723
  H       2.431267      0.661946      0.849440
  H       2.160597     -1.323245     -0.796584
  H       0.222027     -0.249602     -2.332434
  H      -0.385717     -1.636393     -1.386235
14
Coordinates from ORCA-job path_opt4_orca E -344.356953211640
  O      -2.233601     -0.382011      1.731835
  O      -0.541450     -0.300672      0.865616
  C      -0.738233      0.234888     -0.409140
  C       0.169609      0.899248      0.555207
  C       1.531520      0.409127      0.288395
  C       1.361832     -0.613612     -0.551612
  C       0.073923     -0.637343     -1.309854
  H      -2.205862      0.549204      2.004783
  H      -1.749816      0.588584     -0.628774
  H      -0.097053      1.793103      1.126149
  H       2.427128      0.659681      0.855268
  H       2.171252     -1.300468     -0.819497
  H       0.207623     -0.259012     -2.337493
  H      -0.376874     -1.640616     -1.370882
14
Coordinates from ORCA-job path_opt4_orca E -344.356979870275
  O      -2.231468     -0.404279      1.734998
  O      -0.539911     -0.286176      0.871856
  C      -0.737604      0.239128     -0.406239
  C       0.175687      0.909140      0.549277
  C       1.535227      0.410075      0.283825
  C       1.359173     -0.620230     -0.546183
  C       0.071559     -0.637476     -1.306174
  H      -2.223944      0.529006      2.002224
  H      -1.749238      0.591895     -0.627156
  H      -0.086073      1.808668      1.113375
  H       2.434537      0.663905      0.843349
  H       2.162934     -1.317114     -0.804633
  H       0.213206     -0.248886     -2.328966
  H      -0.384084     -1.637556     -1.379552
14
Coordinates from ORCA-job path_opt4_orca E -344.356981339117
  O      -2.230887     -0.411728      1.734612
  O      -0.539173     -0.281327      0.873552
  C      -0.736762      0.241090     -0.405542
  C       0.178043      0.912745      0.547395
  C       1.536414      0.410332      0.282623
  C       1.358447     -0.621668     -0.544952
  C       0.070755     -0.637267     -1.305007
  H      -2.230151      0.521731      2.001291
  H      -1.748582      0.593641     -0.626016
  H      -0.082613      1.813842      1.109374
  H       2.436689      0.664145      0.840612
  H       2.160435     -1.321388     -0.801120
  H       0.214087     -0.247637     -2.327186
  H      -0.386701     -1.636410     -1.379637
14
Coordinates from ORCA-job path_opt4_orca E -344.356981513819
  O      -2.230806     -0.412815      1.734491
  O      -0.539162     -0.280575      0.873574
  C      -0.736426      0.241500     -0.405587
  C       0.178437      0.913331      0.547199
  C       1.536551      0.410348      0.282499
  C       1.358361     -0.621736     -0.544864
  C       0.070735     -0.637094     -1.304959
  H      -2.231017      0.520638      2.001191
  H      -1.748340      0.594005     -0.625732
  H      -0.082385      1.814501      1.108943
  H       2.436946      0.663887      0.840443
  H       2.160110     -1.321758     -0.800911
  H       0.214105     -0.248008     -2.327315
  H      -0.387107     -1.636125     -1.378971
