14
Coordinates from ORCA-job path_opt2_orca E -344.352722205863
  O      -2.317069     -0.832955      0.849894
  O      -0.891426      0.132226      1.042506
  C      -0.611774      0.570515     -0.200541
  C       0.565174      1.409001      0.179250
  C       1.628761      0.550772      0.193578
  C       1.223930     -0.666737     -0.313490
  C      -0.116070     -0.648795     -0.893768
  H      -2.239482     -1.223664      1.735330
  H      -1.426788      1.111046     -0.710141
  H       0.517090      2.424852      0.570556
  H       2.626665      0.778221      0.576023
  H       1.883546     -1.536148     -0.380838
  H      -0.099795     -0.548488     -1.996318
  H      -0.742763     -1.519746     -0.652041
14
Coordinates from ORCA-job path_opt2_orca E -344.358622614018
  O      -2.306771     -0.839899      0.948271
  O      -0.879879      0.137242      1.049785
  C      -0.642253      0.571847     -0.230949
  C       0.544072      1.406541      0.154770
  C       1.614825      0.527571      0.219180
  C       1.224018     -0.694158     -0.304537
  C      -0.093865     -0.633116     -0.965878
  H      -2.198154     -1.181720      1.848430
  H      -1.473147      1.116647     -0.716298
  H       0.485693      2.420227      0.547898
  H       2.597411      0.746505      0.640856
  H       1.880115     -1.568874     -0.350452
  H      -0.017520     -0.505570     -2.064267
  H      -0.734545     -1.503143     -0.776810
14
Coordinates from ORCA-job path_opt2_orca E -344.359515314742
  O      -2.286745     -0.854944      0.958165
  O      -0.877584      0.148125      1.054336
  C      -0.657454      0.581911     -0.241562
  C       0.540837      1.408683      0.140823
  C       1.613659      0.519175      0.221980
  C       1.222091     -0.708178     -0.290991
  C      -0.094283     -0.622737     -0.981064
  H      -2.163948     -1.188235      1.859287
  H      -1.502311      1.118895     -0.702971
  H       0.485077      2.426591      0.524993
  H       2.591630      0.734523      0.655290
  H       1.867889     -1.589635     -0.317742
  H       0.011441     -0.486011     -2.073094
  H      -0.750299     -1.488066     -0.807450
14
Coordinates from ORCA-job path_opt2_orca E -344.359660389935
  O      -2.279157     -0.865884      0.958126
  O      -0.874662      0.143479      1.056659
  C      -0.658509      0.579914     -0.242786
  C       0.540579      1.406969      0.137356
  C       1.613644      0.517582      0.219800
  C       1.224157     -0.710445     -0.291515
  C      -0.092882     -0.620656     -0.985754
  H      -2.174840     -1.169995      1.871916
  H      -1.513967      1.109942     -0.689545
  H       0.485251      2.426767      0.517188
  H       2.589781      0.733751      0.657045
  H       1.866497     -1.593914     -0.312180
  H       0.025399     -0.471596     -2.074439
  H      -0.751289     -1.485813     -0.821870
14
Coordinates from ORCA-job path_opt2_orca E -344.359743165108
  O      -2.274367     -0.876295      0.955038
  O      -0.871028      0.133982      1.060435
  C      -0.656448      0.575279     -0.240648
  C       0.540945      1.404780      0.136393
  C       1.614675      0.517826      0.215221
  C       1.227299     -0.711286     -0.293944
  C      -0.091442     -0.620868     -0.987194
  H      -2.198591     -1.145379      1.882497
  H      -1.524357      1.096807     -0.672430
  H       0.486517      2.426814      0.510170
  H       2.590369      0.737082      0.652193
  H       1.866977     -1.596538     -0.310419
  H       0.038829     -0.454313     -2.072127
  H      -0.749377     -1.487791     -0.835186
14
Coordinates from ORCA-job path_opt2_orca E -344.359754638520
  O      -2.275033     -0.877752      0.953754
  O      -0.869875      0.129648      1.062401
  C      -0.654961      0.573324     -0.238355
  C       0.541156      1.404272      0.136837
  C       1.615228      0.518492      0.213850
  C       1.228314     -0.711250     -0.294910
  C      -0.091081     -0.621885     -0.986121
  H      -2.208866     -1.138439      1.884336
  H      -1.525747      1.092515     -0.667733
  H       0.487408      2.427185      0.507932
  H       2.591638      0.739681      0.648324
  H       1.867703     -1.596777     -0.311424
  H       0.041537     -0.448474     -2.069983
  H      -0.747420     -1.490440     -0.838908
14
Coordinates from ORCA-job path_opt2_orca E -344.359757590118
  O      -2.276187     -0.877608      0.953432
  O      -0.869511      0.127484      1.063807
  C      -0.654410      0.572498     -0.236593
  C       0.541200      1.404172      0.136985
  C       1.615611      0.518935      0.213337
  C       1.228598     -0.711368     -0.294894
  C      -0.090927     -0.622491     -0.985142
  H      -2.213661     -1.136759      1.884693
  H      -1.525489      1.091015     -0.666536
  H       0.488074      2.427582      0.506624
  H       2.592722      0.741337      0.645613
  H       1.867945     -1.596972     -0.311695
  H       0.042122     -0.445454     -2.068560
  H      -0.746086     -1.492272     -0.841073
