! EnGrad PBE0 RIJCOSX D3BJ def2-SVP def2/J 
%output 
xyzfile=True 
end 
%scf 
maxiter 250 
end
%output
Print[P_Hirshfeld] = 1
end
% maxcore
4000
*xyz 0 2
O   -2.23194936  -0.89446533   1.09448714 
O   -0.70500362   0.04999842   0.98377157 
C   -0.66413939   0.52785607  -0.31644492 
C    0.47334684   1.35635140   0.19272770 
C    1.59192290   0.49838037   0.22708127 
C    1.22258174  -0.70105726  -0.33556634 
C   -0.06166032  -0.61769035  -1.09215016 
H   -2.23257191  -0.79713248   2.05951128 
H   -1.58067369   1.01868540  -0.67196681 
H    0.36381974   2.34312992   0.64305600 
H    2.53786484   0.70163553   0.73033325 
H    1.87177444  -1.58018965  -0.36281047 
H    0.12032903  -0.40337106  -2.16071551 
H   -0.70564919  -1.50203303  -0.99133196 
*
