! EnGrad PBE0 RIJCOSX D3BJ def2-SVP def2/J 
%output 
xyzfile=True 
end 
%scf 
maxiter 250 
end
%output
Print[P_Hirshfeld] = 1
end
% maxcore
4000
*xyz 0 2
O   -2.19409809  -0.87468351   1.09800306 
O   -0.82175245   0.06849440   1.04145536 
C   -0.65480792   0.52343278  -0.30697299 
C    0.47256222   1.34883557   0.19127655 
C    1.58750696   0.49622848   0.22476499 
C    1.30304837  -0.72834274  -0.38922965 
C   -0.06202026  -0.61062012  -1.09882229 
H   -2.23700524  -0.78950841   2.05630989 
H   -1.58201502   1.01574093  -0.67030031 
H    0.36120790   2.33887185   0.64506616 
H    2.53701311   0.70155532   0.73082831 
H    1.87366126  -1.57901166  -0.36475397 
H    0.12051176  -0.40683236  -2.16377681 
H   -0.70370635  -1.50388566  -0.99455190 
*
