! EnGrad PBE0 RIJCOSX D3BJ def2-SVP def2/J 
%output 
xyzfile=True 
end 
%scf 
maxiter 250 
end
%output
Print[P_Hirshfeld] = 1
end
% maxcore
4000
*xyz 0 2
O   -2.18493721  -0.86797676   1.09768265 
O   -0.83489733   0.06048530   1.03853331 
C   -0.65940888   0.52324083  -0.30020498 
C    0.47786097   1.34996276   0.18933124 
C    1.58855225   0.49378690   0.22424998 
C    1.28824565  -0.70913133  -0.39240179 
C   -0.05551414  -0.61553093  -1.09504386 
H   -2.23900075  -0.78544410   2.05850752 
H   -1.57994860   1.01391023  -0.67031773 
H    0.36047287   2.33650188   0.64580607 
H    2.53600794   0.70213292   0.73096420 
H    1.88516670  -1.59238962  -0.36642999 
H    0.11941628  -0.40546128  -2.16530365 
H   -0.70187590  -1.50379994  -0.99605470 
*
