! EnGrad PBE0 RIJCOSX D3BJ def2-SVP def2/J 
%output 
xyzfile=True 
end 
%scf 
maxiter 250 
end
%output
Print[P_Hirshfeld] = 1
end
% maxcore
4000
*xyz 0 2
O   -2.33825337  -0.42657023   1.77710415 
O   -0.54654223  -0.24692465   0.90614012 
C   -0.73637686   0.24085912  -0.40588576 
C    0.18147527   0.91822906   0.54407499 
C    1.53744732   0.41142164   0.28152275 
C    1.46869884  -0.64230333  -0.62672132 
C    0.07007568  -0.63705473  -1.30312677 
H   -2.23112232   0.50938047   2.00815321 
H   -1.74651745   0.59826396  -0.62638920 
H   -0.07830445   1.82027717   1.10491688 
H    2.43801999   0.66419940   0.83961268 
H    2.15793785  -1.32473724  -0.79735617 
H    0.21334503  -0.24956049  -2.32624833 
H   -0.38983815  -1.63528590  -1.37558419 
*
