! EnGrad PBE0 RIJCOSX D3BJ def2-SVP def2/J 
%output 
xyzfile=True 
end 
%scf 
maxiter 250 
end
%output
Print[P_Hirshfeld] = 1
end
% maxcore
4000
*xyz 0 2
O   -2.42528390  -0.07258783   1.55314575 
O   -0.54974407  -0.29661647   0.84220104 
C   -0.73399678   0.21093803  -0.44708512 
C    0.14836870   0.90314227   0.52579001 
C    1.52045212   0.43540096   0.27340250 
C    1.37063038  -0.61940425  -0.52959952 
C    0.10381931  -0.65955663  -1.32218749 
H   -2.08611042   0.26482477   2.39733574 
H   -1.73373715   0.57895059  -0.69318464 
H   -0.15133938   1.79389111   1.08254940 
H    2.41407186   0.71797439   0.82810415 
H    2.18835300  -1.30850152  -0.76597689 
H    0.27083515  -0.28189955  -2.34530605 
H   -0.33631883  -1.66645963  -1.39919263 
*
