! EnGrad PBE0 RIJCOSX D3BJ def2-SVP def2/J 
%output 
xyzfile=True 
end 
%scf 
maxiter 250 
end
%output
Print[P_Hirshfeld] = 1
end
% maxcore
4000
*xyz 0 2
O   -2.48352404  -0.07051073   1.57737444 
O   -0.60394364  -0.28927771   0.90056139 
C   -0.73810718   0.22011157  -0.44734342 
C    0.14437374   0.90647127   0.52004912 
C    1.52357626   0.43186003   0.28176209 
C    1.48895922  -0.63951913  -0.61924157 
C    0.10464083  -0.66358064  -1.31740856 
H   -2.08441639   0.26984206   2.39055239 
H   -1.73556576   0.57481942  -0.68753682 
H   -0.15019192   1.79666296   1.08044980 
H    2.41406593   0.71729336   0.82988659 
H    2.18853309  -1.30794580  -0.76560367 
H    0.26907605  -0.28003677  -2.34386840 
H   -0.33751841  -1.66595318  -1.39886659 
*
