! EnGrad PBE0 RIJCOSX D3BJ def2-SVP def2/J 
%output 
xyzfile=True 
end 
%scf 
maxiter 250 
end
%output
Print[P_Hirshfeld] = 1
end
% maxcore
4000
*xyz 0 2
O   -2.24969342  -0.71075872   1.42935458 
O   -0.59020385  -0.14811913   0.91263977 
C   -0.69757764   0.37712577  -0.37130747 
C    0.32060919   1.15440545   0.38292910 
C    1.57465576   0.45715621   0.24692677 
C    1.30873107  -0.66631040  -0.46299439 
C    0.01988722  -0.63373237  -1.21859636 
H   -2.31981616  -0.03672184   2.12202954 
H   -1.66633387   0.80554123  -0.65222361 
H    0.12134031   2.09610441   0.89691389 
H    2.49297758   0.68404328   0.78825568 
H    2.03452266  -1.47305532  -0.60111345 
H    0.18592901  -0.32209151  -2.26456008 
H   -0.53503179  -1.58349313  -1.20826790 
*
