! EnGrad PBE0 RIJCOSX D3BJ def2-SVP def2/J 
%output 
xyzfile=True 
end 
%scf 
maxiter 250 
end
%output
Print[P_Hirshfeld] = 1
end
% maxcore
4000
*xyz 0 2
O   -2.34449447  -0.74641772   1.44495091 
O   -0.56789576  -0.00277860   0.95222756 
C   -0.68117801   0.37057439  -0.37080203 
C    0.27397170   1.09713376   0.39888012 
C    1.58199223   0.43008755   0.22719652 
C    1.40867145  -0.67283200  -0.51558866 
C    0.01504702  -0.62282739  -1.22597514 
H   -2.31502070  -0.05348862   2.12588660 
H   -1.66672954   0.80635323  -0.65118085 
H    0.12165522   2.09390227   0.89621800 
H    2.49238977   0.68362901   0.78787597 
H    2.03250818  -1.47392487  -0.59745994 
H    0.18563791  -0.32710254  -2.26575832 
H   -0.53612345  -1.58225774  -1.20645163 
*
