! EnGrad PBE0 RIJCOSX D3BJ def2-SVP def2/J 
%output 
xyzfile=True 
end 
%scf 
maxiter 250 
end
%output
Print[P_Hirshfeld] = 1
end
% maxcore
4000
*xyz 0 2
O   -2.35053605  -0.74806369   1.44635955 
O   -0.56542819   0.00260716   0.95530304 
C   -0.69310974   0.37117612  -0.37967812 
C    0.28159621   1.10409818   0.41057868 
C    1.58634166   0.43032581   0.22789569 
C    1.38891174  -0.65674444  -0.51863757 
C    0.02339925  -0.62937191  -1.22225276 
H   -2.31555523  -0.05592240   2.12608723 
H   -1.66337059   0.80522871  -0.65122252 
H    0.12275899   2.08925959   0.89179231 
H    2.49087443   0.68352824   0.78734792 
H    2.04558729  -1.48831948  -0.59985264 
H    0.18419899  -0.32625532  -2.26727914 
H   -0.53518246  -1.58149660  -1.20640491 
*
