! EnGrad PBE0 RIJCOSX D3BJ def2-SVP def2/J 
%output 
xyzfile=True 
end 
%scf 
maxiter 250 
end
%output
Print[P_Hirshfeld] = 1
end
% maxcore
4000
*xyz 0 2
O   -2.37071333   0.57656333   1.76792000 
O   -0.48441333  -0.34348333   0.82124333 
C   -0.73203667   0.17418333  -0.45504000 
C    0.14652000   0.89156333   0.50256333 
C    1.52920000   0.45519000   0.24566000 
C    1.37964333  -0.61510667  -0.53729667 
C    0.11868667  -0.67409667  -1.33955333 
H   -2.24923333  -0.19696000   2.34028667 
H   -1.75762667   0.48453667  -0.66887333 
H   -0.18354000   1.76042000   1.07414667 
H    2.41693333   0.75371333   0.80127000 
H    2.20520333  -1.29810333  -0.76596000 
H    0.28380333  -0.28027000  -2.35668000 
H   -0.30243000  -1.68804667  -1.42969000 
*
