! EnGrad PBE0 RIJCOSX D3BJ def2-SVP def2/J 
%output 
xyzfile=True 
end 
%scf 
maxiter 250 
end
%output
Print[P_Hirshfeld] = 1
end
% maxcore
4000
*xyz 0 2
O   -2.38806146   0.59173170   1.77325835 
O   -0.61023873  -0.33272960   0.91805102 
C   -0.73215644   0.17167991  -0.45438720 
C    0.14671963   0.89030611   0.50425075 
C    1.53122980   0.45495131   0.24324034 
C    1.51671340  -0.63466957  -0.63722370 
C    0.12075089  -0.67429087  -1.34088616 
H   -2.25317008  -0.19463260   2.34274132 
H   -1.75796293   0.47954362  -0.66606064 
H   -0.18346343   1.75621358   1.07717044 
H    2.41887945   0.75530347   0.79864282 
H    2.20665087  -1.29704877  -0.76813325 
H    0.28457945  -0.27782460  -2.35748976 
H   -0.30015083  -1.68836491  -1.43302410 
*
