! EnGrad PBE0 RIJCOSX D3BJ def2-SVP def2/J 
%output 
xyzfile=True 
end 
%scf 
maxiter 250 
end
%output
Print[P_Hirshfeld] = 1
end
% maxcore
4000
*xyz 0 2
O   -2.38978063   0.59071304   1.77592639 
O   -0.60588167  -0.32517084   0.90843369 
C   -0.73033498   0.16914854  -0.44393102 
C    0.14199375   0.88234438   0.50510908 
C    1.53429025   0.43870656   0.23324065 
C    1.47655138  -0.59111047  -0.62294991 
C    0.12982265  -0.67781981  -1.33908498 
H   -2.25406409  -0.19181162   2.34110878 
H   -1.75741763   0.48027361  -0.66745517 
H   -0.18264250   1.75714426   1.07652462 
H    2.41856882   0.75611548   0.79966599 
H    2.23643545  -1.32259816  -0.77529141 
H    0.28244324  -0.27728938  -2.35779714 
H   -0.29963336  -1.68849897  -1.43337899 
*
