! EnGrad PBE0 RIJCOSX D3BJ def2-SVP def2/J 
%output 
xyzfile=True 
end 
%scf 
maxiter 250 
end
%output
Print[P_Hirshfeld] = 1
end
% maxcore
4000
%pal nprocs 8
end
*xyz 0 2
O   -2.72621000   0.57077000   2.11445000 
O   -0.39250000  -0.42119000   0.80655000 
C   -0.73106000   0.14265000  -0.42993000 
C    0.15555000   0.86607000   0.51805000 
C    1.54411000   0.47705000   0.22503000 
C    1.35141000  -0.62852000  -0.49965000 
C    0.11539000  -0.67213000  -1.34392000 
H   -1.95373000   0.01247000   1.85443000 
H   -1.77593000   0.42303000  -0.59938000 
H   -0.19543000   1.70622000   1.12242000 
H    2.43912000   0.78454000   0.76219000 
H    2.17043000  -1.32345000  -0.72160000 
H    0.30518000  -0.25476000  -2.34665000 
H   -0.30633000  -1.68267000  -1.46199000 
*
