14
autodE path point 0. E = -22.247905048635 charge = 0 mult = 2 
O     -2.54858   -0.59262    0.75290
O     -1.32260    0.03515    1.12654
C     -0.59636    0.39400   -0.03027
C      0.56634    1.22007    0.42274
C      1.74647    0.61541    0.05293
C      1.51215   -0.55456   -0.63198
C      0.05096   -0.81028   -0.74916
H     -3.05201   -0.55049    1.57591
H     -1.27004    0.95252   -0.69945
H      0.44485    2.12137    0.99005
H      2.72299    1.01299    0.26909
H      2.25527   -1.21480   -1.03854
H     -0.26877   -0.89051   -1.79072
H     -0.24067   -1.73815   -0.25004
14
autodE path point 1. E = -22.234015691152 charge = 0 mult = 2 
O     -2.51745   -0.74947    0.88283
O     -1.18250    0.14609    1.07801
C     -0.62178    0.46262   -0.14687
C      0.54506    1.28368    0.31933
C      1.71203    0.57241    0.12792
C      1.46609   -0.61031   -0.52677
C      0.02126   -0.75176   -0.84345
H     -2.83017   -0.72015    1.79099
H     -1.33785    1.00392   -0.78062
H      0.42315    2.21696    0.83178
H      2.68499    0.91282    0.43800
H      2.20008   -1.34440   -0.80443
H     -0.15527   -0.74904   -1.92214
H     -0.40765   -1.67328   -0.44458
14
autodE path point 2. E = -22.225806165821 charge = 0 mult = 2 
O     -2.33039   -0.85199    1.02086
O     -1.01965    0.17620    1.01526
C     -0.65135    0.51399   -0.26806
C      0.50595    1.33988    0.21055
C      1.63068    0.53169    0.21416
C      1.36057   -0.66648   -0.39640
C     -0.01139   -0.69329   -0.96124
H     -2.50516   -0.81664    1.96382
H     -1.44293    1.02370   -0.82565
H      0.38925    2.30766    0.65576
H      2.58020    0.80946    0.63719
H      2.05319   -1.48197   -0.50661
H      0.00276   -0.59147   -2.04996
H     -0.56173   -1.60064   -0.70967
14
autodE path point 3. E = -22.21377481952 charge = 0 mult = 2 
O     -2.20182   -0.88068    1.11401
O     -0.86615    0.18465    0.95040
C     -0.66480    0.53624   -0.36212
C      0.46798    1.36326    0.16104
C      1.56164    0.50681    0.26894
C      1.26419   -0.69233   -0.31707
C     -0.02517   -0.66114   -1.05181
H     -2.26069   -0.84034    2.06942
H     -1.50959    1.02513   -0.84784
H      0.34683    2.34157    0.58120
H      2.47966    0.74169    0.77712
H      1.91591   -1.54936   -0.32972
H      0.12455   -0.52450   -2.12606
H     -0.63255   -1.55091   -0.88749
14
autodE path point 4. E = -22.209603627945 charge = 0 mult = 2 
O     -2.32526   -0.18739    1.43660
O     -0.66016    0.07028    0.83767
C     -0.69278    0.38596   -0.51102
C      0.22520    1.12469    0.38140
C      1.50519    0.41983    0.33217
C      1.31993   -0.67599   -0.40154
C      0.07851   -0.68561   -1.23198
H     -2.14187   -0.50410    2.32185
H     -1.61287    0.81212   -0.88404
H      0.04559    2.11431    0.76604
H      2.34809    0.65632    0.95241
H      2.06517   -1.44403   -0.53713
H      0.29195   -0.44702   -2.27544
H     -0.44669   -1.63927   -1.18696
14
autodE path point 5. E = -22.21471171584 charge = 0 mult = 2 
O     -2.34860    0.41981    1.66442
O     -0.55261   -0.21689    0.81067
C     -0.70422    0.21842   -0.49827
C      0.14574    0.94846    0.46481
C      1.51357    0.41979    0.30872
C      1.39167   -0.64010   -0.47978
C      0.15849   -0.69331   -1.32094
H     -2.40964   -0.23399    2.36003
H     -1.68518    0.56535   -0.78344
H     -0.14550    1.86348    0.95353
H      2.34587    0.69600    0.92535
H      2.20336   -1.32105   -0.69315
H      0.35546   -0.33198   -2.33188
H     -0.26842   -1.69388   -1.38004
14
autodE path point 6. E = -22.204571556403 charge = 0 mult = 2 
O     -2.50579    0.51766    1.71198
O     -0.44967   -0.29547    0.81703
C     -0.68512    0.16920   -0.46890
C      0.17246    0.91401    0.47792
C      1.55050    0.43582    0.26942
C      1.41858   -0.63240   -0.51168
C      0.17869   -0.69185   -1.34170
H     -2.61809   -0.13404    2.40257
H     -1.69008    0.48301   -0.70314
H     -0.13779    1.80328    1.00037
H      2.39491    0.72154    0.86500
H      2.23962   -1.29493   -0.75009
H      0.35819   -0.29632   -2.34319
H     -0.22642   -1.69940   -1.42554
14
autodE path point 7. E = -22.194929016914 charge = 0 mult = 2 
O     -2.56965    0.64852    1.71794
O     -0.33359   -0.43740    0.82062
C     -0.67044    0.07575   -0.42268
C      0.18179    0.83326    0.52053
C      1.57448    0.45236    0.23735
C      1.45751   -0.60729   -0.56391
C      0.20402   -0.68818   -1.37079
H     -2.88963    0.11696    2.44623
H     -1.70288    0.33791   -0.59151
H     -0.16864    1.67106    1.09878
H      2.42776    0.76143    0.80821
H      2.30098   -1.22318   -0.84844
H      0.34002   -0.23168   -2.35289
H     -0.15173   -1.70940   -1.49939
14
autodE path point 8. E = -22.217597537393 charge = 0 mult = 2 
O     -2.77104    0.71128    1.85175
O     -0.56962   -0.20211    0.28306
C     -0.39102    0.34244   -0.94544
C      0.26380    0.95159    0.23595
C      1.56076    0.28363    0.37826
C      1.46011   -0.75551   -0.44968
C      0.52459   -0.63514   -1.61563
H     -2.06333    0.29711    1.34030
H     -3.48380    0.07184    1.89536
H     -0.08261    1.84402    0.72737
H      2.27279    0.44245    1.16282
H      2.23593   -1.51157   -0.51440
H      1.04612   -0.28105   -2.50537
H     -0.00268   -1.55885   -1.84430
