! Freq PBE0 RIJCOSX D3BJ def2-SVP def2/J 
%output 
xyzfile=True 
end 
%scf 
maxiter 250 
end
%output
Print[P_Hirshfeld] = 1
end
% maxcore
4000
%pal nprocs 8
end
*xyz 0 2
O   -2.56964727   0.64852322   1.71793873 
O   -0.33359164  -0.43739802   0.82061501 
C   -0.67044286   0.07574729  -0.42267668 
C    0.18179396   0.83325501   0.52053050 
C    1.57448203   0.45236166   0.23734538 
C    1.45750820  -0.60729035  -0.56391369 
C    0.20401677  -0.68818428  -1.37079370 
H   -2.88963145   0.11695975   2.44623446 
H   -1.70287861   0.33791018  -0.59150802 
H   -0.16864151   1.67106077   1.09878183 
H    2.42776006   0.76142708   0.80821294 
H    2.30097819  -1.22318033  -0.84843776 
H    0.34001886  -0.23168151  -2.35288583 
H   -0.15173473  -1.70940048  -1.49939318 
*
