! EnGrad PBE0 RIJCOSX D3BJ def2-SVP def2/J 
%output 
xyzfile=True 
end 
%scf 
maxiter 250 
end
%output
Print[P_Hirshfeld] = 1
end
% maxcore
4000
*xyz 0 2
O   -2.46675001   0.21590101   1.56753317 
O   -0.53465265  -0.30103350   0.83417286 
C   -0.72553062   0.21751927  -0.45005077 
C    0.15743870   0.90462133   0.52363362 
C    1.52836896   0.43016498   0.27103109 
C    1.36995676  -0.62127739  -0.53485650 
C    0.10343742  -0.66073263  -1.32701708 
H   -2.08676860   0.00086681   2.43346581 
H   -1.72179612   0.58301583  -0.71089135 
H   -0.15242102   1.78426688   1.09143534 
H    2.42222326   0.70378742   0.82996330 
H    2.18362041  -1.31392015  -0.77539368 
H    0.26594217  -0.27820825  -2.34917391 
H   -0.34306865  -1.66487696  -1.40385726 
*
