! EnGrad PBE0 RIJCOSX D3BJ def2-SVP def2/J 
%output 
xyzfile=True 
end 
%scf 
maxiter 250 
end
%output
Print[P_Hirshfeld] = 1
end
% maxcore
4000
*xyz 0 2
O   -2.49279624   0.22163584   1.57902671 
O   -0.62713734  -0.29137673   0.90660485 
C   -0.73065480   0.22019054  -0.45683359 
C    0.15239396   0.90345167   0.52070779 
C    1.53019640   0.42881605   0.27584848 
C    1.49447346  -0.64550107  -0.62617699 
C    0.10614423  -0.65657682  -1.32305815 
H   -2.08749293   0.00481180   2.43466431 
H   -1.72426837   0.58021437  -0.70408523 
H   -0.15177293   1.78670619   1.08860444 
H    2.42190892   0.70452246   0.83038610 
H    2.18508102  -1.31316133  -0.77333417 
H    0.26665216  -0.27858893  -2.34866608 
H   -0.34260729  -1.66479352  -1.40350935 
*
