! EnGrad PBE0 RIJCOSX D3BJ def2-SVP def2/J 
%output 
xyzfile=True 
end 
%scf 
maxiter 250 
end
%output
Print[P_Hirshfeld] = 1
end
% maxcore
4000
*xyz 0 2
O   -2.49704973   0.22330296   1.58150071 
O   -0.62249346  -0.28537332   0.89773741 
C   -0.72699373   0.21729813  -0.44679680 
C    0.14931956   0.89720786   0.52141851 
C    1.53217991   0.41283957   0.26420953 
C    1.45801707  -0.60332207  -0.61045698 
C    0.11418977  -0.66079935  -1.32335880 
H   -2.08839728   0.00505091   2.43431209 
H   -1.72525424   0.58089738  -0.70511009 
H   -0.15092613   1.78721948   1.08753836 
H    2.42215531   0.70550788   0.83194650 
H    2.21246497  -1.33710184  -0.78042232 
H    0.26481789  -0.27827208  -2.34878845 
H   -0.34188281  -1.66410285  -1.40356361 
*
