! EnGrad PBE0 RIJCOSX D3BJ def2-SVP def2/J 
%output 
xyzfile=True 
end 
%scf 
maxiter 250 
end
%output
Print[P_Hirshfeld] = 1
end
% maxcore
4000
*xyz 0 2
O   -2.25669638  -0.57731878   1.57796524 
O   -0.57277703  -0.23060045   0.89273917 
C   -0.71491327   0.30693490  -0.38396602 
C    0.25862735   1.05099653   0.45772572 
C    1.55829032   0.43806328   0.26167410 
C    1.33604030  -0.64558473  -0.50804899 
C    0.04615847  -0.63756739  -1.26167612 
H   -2.29044165   0.24741135   2.08757961 
H   -1.70077655   0.70425551  -0.64756613 
H    0.03086976   1.96975461   1.00195285 
H    2.46696990   0.67436092   0.81449555 
H    2.10189253  -1.40139727  -0.70637349 
H    0.19928096  -0.28625896  -2.29679317 
H   -0.46252663  -1.61295758  -1.28972026 
*
