! EnGrad PBE0 RIJCOSX D3BJ def2-SVP def2/J 
%output 
xyzfile=True 
end 
%scf 
maxiter 250 
end
%output
Print[P_Hirshfeld] = 1
end
% maxcore
4000
*xyz 0 2
O   -2.37824750  -0.61357446   1.60843980 
O   -0.53255741  -0.09556539   0.92705352 
C   -0.71259771   0.30762390  -0.39619853 
C    0.22386903   1.00679273   0.47956084 
C    1.57215901   0.41280280   0.24083262 
C    1.41926542  -0.63312813  -0.56622118 
C    0.05177572  -0.63569470  -1.26248315 
H   -2.29033137   0.22234827   2.09369052 
H   -1.69816110   0.70917653  -0.64476937 
H    0.03423344   1.96885440   0.99165844 
H    2.46711812   0.67496998   0.81205765 
H    2.11335448  -1.42330234  -0.70205015 
H    0.19651332  -0.29091786  -2.29700670 
H   -0.46625224  -1.61051272  -1.28449954 
*
