! EnGrad PBE0 RIJCOSX D3BJ def2-SVP def2/J 
%output 
xyzfile=True 
end 
%scf 
maxiter 250 
end
%output
Print[P_Hirshfeld] = 1
end
% maxcore
4000
*xyz 0 2
O   -2.30030866  -0.36157207   1.68098857 
O   -0.54240920  -0.28390936   0.86654055 
C   -0.73731083   0.22913629  -0.41672875 
C    0.16826003   0.91191726   0.53747912 
C    1.53148517   0.42155538   0.27680917 
C    1.36318819  -0.61988642  -0.54057977 
C    0.08139230  -0.64474308  -1.31016354 
H   -2.17590648   0.49023390   2.12602995 
H   -1.74803172   0.58094895  -0.64231304 
H   -0.10311938   1.81240344   1.09472771 
H    2.42901109   0.68644106   0.83411088 
H    2.17078297  -1.31642106  -0.78820875 
H    0.23102394  -0.25853585  -2.33281847 
H   -0.36805742  -1.64747573  -1.38588095 
*
