! EnGrad PBE0 RIJCOSX D3BJ def2-SVP def2/J 
%output 
xyzfile=True 
end 
%scf 
maxiter 250 
end
%output
Print[P_Hirshfeld] = 1
end
% maxcore
4000
*xyz 0 2
O   -2.38302525  -0.37450706   1.72367665 
O   -0.56085874  -0.25904619   0.90893769 
C   -0.73930698   0.23153709  -0.41730171 
C    0.16859341   0.91321938   0.53788098 
C    1.53281145   0.41871928   0.28055949 
C    1.47523779  -0.63909863  -0.62620550 
C    0.07987151  -0.64598027  -1.30692136 
H   -2.18090289   0.49613110   2.11321815 
H   -1.74823979   0.58186302  -0.63884111 
H   -0.10012014   1.81370859   1.09605736 
H    2.43013179   0.68294872   0.83554079 
H    2.16921155  -1.31703910  -0.79008226 
H    0.22790690  -0.25646615  -2.33146625 
H   -0.37114472  -1.64578938  -1.38484352 
*
