! EnGrad PBE0 RIJCOSX D3BJ def2-SVP def2/J 
%output 
xyzfile=True 
end 
%scf 
maxiter 250 
end
%output
Print[P_Hirshfeld] = 1
end
% maxcore
4000
*xyz 0 2
O   -2.38882094  -0.37305181   1.72671419 
O   -0.56211281  -0.25698764   0.90694099 
C   -0.73530964   0.22930408  -0.41196183 
C    0.16910810   0.91075795   0.53709580 
C    1.53705673   0.40563792   0.26881465 
C    1.44371862  -0.60226483  -0.61209794 
C    0.08810870  -0.64754338  -1.30803254 
H   -2.18190059   0.49454305   2.11302891 
H   -1.74848520   0.58208409  -0.63937942 
H   -0.09919024   1.81455360   1.09541186 
H    2.43024110   0.68367297   0.83665714 
H    2.19271716  -1.33779039  -0.79672849 
H    0.22604669  -0.25644260  -2.33137759 
H   -0.37101801  -1.64628385  -1.38486866 
*
