! EnGrad PBE0 RIJCOSX D3BJ def2-SVP def2/J 
%output 
xyzfile=True 
end 
%scf 
maxiter 250 
end
%output
Print[P_Hirshfeld] = 1
end
% maxcore
4000
*xyz 0 2
O   -2.42060092   0.38294324   1.63204915 
O   -0.52604276  -0.30578587   0.83217323 
C   -0.72874093   0.20567125  -0.45309176 
C    0.15259596   0.90478514   0.51368498 
C    1.52672343   0.43709969   0.26446471 
C    1.37180060  -0.62032962  -0.53401375 
C    0.10727355  -0.66758837  -1.32883095 
H   -2.13352041  -0.12189740   2.40727085 
H   -1.73347446   0.54976151  -0.70968215 
H   -0.15930870   1.78537162   1.07821650 
H    2.41791079   0.71890858   0.82358224 
H    2.18894155  -1.31084851  -0.76894857 
H    0.26938160  -0.28352810  -2.35049722 
H   -0.33293928  -1.67446654  -1.40638062 
*
