! EnGrad PBE0 RIJCOSX D3BJ def2-SVP def2/J 
%output 
xyzfile=True 
end 
%scf 
maxiter 250 
end
%output
Print[P_Hirshfeld] = 1
end
% maxcore
4000
*xyz 0 2
O   -2.44003108   0.39653041   1.63994503 
O   -0.62864976  -0.29530169   0.91024118 
C   -0.73263770   0.20743542  -0.46080588 
C    0.14970041   0.90516625   0.51235913 
C    1.52751304   0.43589079   0.26725753 
C    1.49939191  -0.64455687  -0.62646991 
C    0.10883876  -0.66430821  -1.32500387 
H   -2.13380428  -0.12611151   2.41049755 
H   -1.73527936   0.54899555  -0.70389361 
H   -0.16014054   1.78631932   1.07654424 
H    2.41784832   0.71914996   0.82378263 
H    2.18998998  -1.31054160  -0.76760036 
H    0.26990267  -0.28404923  -2.35014489 
H   -0.33246601  -1.67456771  -1.40650260 
*
