! EnGrad PBE0 RIJCOSX D3BJ def2-SVP def2/J 
%output 
xyzfile=True 
end 
%scf 
maxiter 250 
end
%output
Print[P_Hirshfeld] = 1
end
% maxcore
4000
*xyz 0 2
O   -2.44271465   0.39698459   1.64442415 
O   -0.62378672  -0.28882441   0.90064105 
C   -0.72938960   0.20504895  -0.44989684 
C    0.14566929   0.89788020   0.51273627 
C    1.53016943   0.41986019   0.25622969 
C    1.46167201  -0.60185195  -0.61116878 
C    0.11739036  -0.66858594  -1.32517540 
H   -2.13553032  -0.12443550   2.40807332 
H   -1.73589113   0.54974366  -0.70502511 
H   -0.15945306   1.78704257   1.07569816 
H    2.41778981   0.72005446   0.82509553 
H    2.21809129  -1.33502534  -0.77463015 
H    0.26799799  -0.28378204  -2.35019866 
H   -0.33180609  -1.67408022  -1.40661082 
*
