! EnGrad PBE0 RIJCOSX D3BJ def2-SVP def2/J 
%output 
xyzfile=True 
end 
%scf 
maxiter 250 
end
%output
Print[P_Hirshfeld] = 1
end
% maxcore
4000
*xyz 0 2
O   -2.15555473  -0.82208020   0.97104265 
O   -0.99899618   0.07467899   1.07819252 
C   -0.65600426   0.57496523  -0.24744417 
C    0.53640379   1.40470921   0.13563078 
C    1.61077757   0.51702190   0.21627291 
C    1.26889621  -0.73201149  -0.32351079 
C   -0.09206439  -0.61850038  -0.99767754 
H   -2.19992808  -1.12109619   1.90113589 
H   -1.53155065   1.09147506  -0.66803736 
H    0.48153351   2.42642228   0.50992043 
H    2.58371073   0.73331091   0.65874747 
H    1.85064808  -1.60109815  -0.29595284 
H    0.05372149  -0.44185946  -2.07922144 
H   -0.75135677  -1.48594703  -0.85916816 
*
