! EnGrad PBE0 RIJCOSX D3BJ def2-SVP def2/J 
%output 
xyzfile=True 
end 
%scf 
maxiter 250 
end
%output
Print[P_Hirshfeld] = 1
end
% maxcore
4000
*xyz 0 2
O   -2.52389000  -0.68412000   0.77291000 
O   -1.17455000   0.13873000   1.15770000 
C   -0.62414000   0.48840000  -0.08441000 
C    0.56935000   1.31605000   0.30517000 
C    1.72830000   0.57242000   0.11129000 
C    1.43712000  -0.64250000  -0.49415000 
C   -0.02192000  -0.72734000  -0.80949000 
H   -2.70016000  -0.97003000   1.68117000 
H   -1.37781000   1.03302000  -0.68094000 
H    0.49067000   2.30062000   0.76609000 
H    2.73099000   0.90389000   0.38971000 
H    2.16978000  -1.40784000  -0.75648000 
H   -0.19052000  -0.67389000  -1.90068000 
H   -0.51323000  -1.64732000  -0.45786000 
*
