! EnGrad PBE0 RIJCOSX D3BJ def2-SVP def2/J 
%output 
xyzfile=True 
end 
%scf 
maxiter 250 
end
%output
Print[P_Hirshfeld] = 1
end
% maxcore
4000
*xyz 0 2
O   -2.42460253  -0.62635481   0.80644143 
O   -1.27408733   0.08286101   1.13241564 
C   -0.62865321   0.48611907  -0.08213458 
C    0.56701883   1.31533961   0.30463224 
C    1.72753746   0.57183805   0.11181702 
C    1.44032586  -0.64378756  -0.49598999 
C   -0.02178006  -0.72619678  -0.81082838 
H   -2.69298806  -0.96918835   1.67628543 
H   -1.37845292   1.03362068  -0.68174298 
H    0.49096147   2.30171877   0.76399708 
H    2.73017254   0.90279026   0.39147377 
H    2.16872004  -1.41032013  -0.75332013 
H   -0.18899813  -0.67205809  -1.90194458 
H   -0.51508664  -1.64652186  -0.46106007 
*
