16
Generated by autodE on: 2025-05-23. charge = 0 mult = 1 E = -234.070062 Ha
C      0.50220    1.52154   -0.35918
C     -0.90840    1.38493   -0.21523
C     -1.56648    0.71017   -1.19375
C     -0.59770   -1.32428   -0.73939
C      0.67904   -1.24798   -0.25719
C      1.28297    0.83312    0.51372
H      0.90228    1.75502   -1.35330
H     -1.33121    1.39274    0.79665
H     -2.60991    0.40291   -1.08582
H     -1.16210    0.69344   -2.20963
H     -1.42368   -1.58965   -0.07637
H     -0.77825   -1.45702   -1.80684
H      1.53007   -1.26037   -0.94125
H      0.89445   -1.50702    0.78025
H      2.36244    0.73431    0.37295
H      0.90288    0.59242    1.51044
