! LooseOpt PBE0 RIJCOSX D3BJ def2-SVP def2/J 
%geom Constraints
{ B 2 3 2.2986938436629267 C }
{ B 4 5 2.300001533616262 C }
    end
end
%geom MaxIter 10 end
%output 
xyzfile=True 
end 
%scf 
maxiter 250 
end
%output
Print[P_Hirshfeld] = 1
end
% maxcore
4000
%pal nprocs 8
end
*xyz 0 1
C    0.51115232   1.46812451  -0.36503599 
C   -0.90677581   1.33069960  -0.21920693 
C   -1.57380439   0.70084987  -1.19869202 
C   -0.58799420  -1.32568914  -0.73712654 
C    0.67036271  -1.25074323  -0.26009525 
C    1.29082501   0.82479158   0.51771001 
H    0.89478937   1.73398742  -1.34086192 
H   -1.31733166   1.37435628   0.78047876 
H   -2.61215111   0.43075462  -1.09826714 
H   -1.18379113   0.69715024  -2.20318778 
H   -1.40755425  -1.55921371  -0.07916518 
H   -0.77160020  -1.43416034  -1.79032266 
H    1.50920342  -1.23397836  -0.93483323 
H    0.88371449  -1.48332173   0.76698967 
H    2.35921694   0.75880874   0.39297385 
H    0.92032848   0.60186363   1.50468234 
*
