! SP PBE0 RIJCOSX D3BJ def2-TZVP def2/J 
%output 
xyzfile=True 
end 
%scf 
maxiter 250 
end
%output
Print[P_Hirshfeld] = 1
end
% maxcore
4000
%pal nprocs 8
end
*xyz 0 1
C    1.15162510   0.49915833   0.14591623 
C    0.40016325  -0.45664975   1.10847243 
C   -0.98053986  -0.34700073   0.44334411 
C   -0.68336160  -0.52145810  -1.05253964 
C   -0.04664056   0.84279699  -0.75241917 
O   -1.09620332   1.07540019   0.21402207 
H    1.53849983   1.39597140   0.64951634 
H    1.97717547   0.02193805  -0.40283766 
H    0.79406398  -1.48388087   1.11593264 
H    0.37097115  -0.08534792   2.14234558 
H   -1.84755727  -0.79904344   0.94471820 
H   -1.59089243  -0.42126198  -1.66164673 
H   -0.05211279  -1.35771650  -1.39141438 
H    0.06480903   1.63709430  -1.50351003 
*
