! SP PBE0 RIJCOSX D3BJ def2-TZVP def2/J 
%output 
xyzfile=True 
end 
%scf 
maxiter 250 
end
%output
Print[P_Hirshfeld] = 1
end
% maxcore
4000
%pal nprocs 8
end
*xyz 0 2
O    2.13731319  -1.13718955   1.12596952 
O    1.51767391   0.06137146   0.69663342 
C    0.71182188  -0.22501330  -0.43277741 
C   -0.43355853  -1.17933942  -0.08127999 
C   -1.49094908  -0.27705782   0.46054104 
C   -1.15627863   1.15847430   0.22844545 
C    0.01817439   1.09429516  -0.75762534 
H    3.04722040  -0.99386273   0.82826105 
H    1.35282938  -0.59936800  -1.25246391 
H   -0.09111254  -1.95690888   0.62082015 
H   -0.76796095  -1.71561286  -0.99321242 
H   -2.36196058  -0.62005495   1.02216445 
H   -0.83993573   1.64929063   1.17040306 
H   -2.00459219   1.75238618  -0.15444242 
H    0.71241645   1.94430837  -0.68713112 
H   -0.35080141   1.04448143  -1.79430555 
*
