16
Generated by autodE on: 2025-05-23. charge = 0 mult = 2 E = -23.242628 Ha
O      2.62966    0.01024    0.91591
O      0.97121   -0.40109    0.82764
C      0.63236   -0.40798   -0.54020
C     -0.64819   -1.22123   -0.32798
C     -1.02636   -0.27542    0.77079
C     -0.99237    1.11227    0.22464
C      0.09671    0.99269   -0.86557
H      2.75172   -0.16177    1.85117
H      1.43714   -0.78463   -1.16966
H     -1.33521   -1.22725   -1.17857
H     -0.45205   -2.23337    0.01400
H     -1.47744   -0.54998    1.70634
H     -0.73461    1.84101    0.99242
H     -1.96246    1.39707   -0.19565
H      0.87876    1.73911   -0.75134
H     -0.30567    1.03950   -1.87602
