16
Generated by autodE on: 2025-05-23. charge = 0 mult = 2 E = -23.242628 Ha
O      2.32523   -1.25202    0.92350
O      0.62953   -1.14529    0.72200
C      0.40671   -0.79638   -0.62489
C     -1.06088   -1.23462   -0.60643
C     -1.24520   -0.44535    0.65378
C     -0.78889    0.95199    0.39998
C      0.30532    0.73407   -0.66974
H      2.32258   -1.64136    1.79997
H      1.12107   -1.26148   -1.30246
H     -1.17882   -2.30620   -0.47339
H     -1.65572   -0.88278   -1.45369
H     -1.82288   -0.75146    1.50618
H     -0.40027    1.41898    1.30422
H     -1.60806    1.57492    0.02610
H      1.25197    1.18953   -0.39022
H      0.01064    1.08451   -1.65738
