14
Coordinates from ORCA-job p0_C5H8O_conf0_opt_orca E -270.017288565036
  C       1.145781      0.496935      0.144172
  C       0.397657     -0.455734      1.101972
  C      -0.989383     -0.335231      0.448237
  C      -0.674837     -0.516771     -1.040279
  C      -0.054600      0.853585     -0.748611
  O      -1.098716      1.079299      0.214226
  H       1.537886      1.375079      0.651822
  H       1.944345      0.013537     -0.414336
  H       0.774077     -1.476078      1.082385
  H       0.386677     -0.092724      2.127182
  H      -1.842353     -0.790293      0.942561
  H      -1.560142     -0.449092     -1.665121
  H      -0.028202     -1.334541     -1.347622
  H       0.061810      1.632030     -1.496688
14
Coordinates from ORCA-job p0_C5H8O_conf0_opt_orca E -270.018338482664
  C       1.150267      0.499348      0.146341
  C       0.399737     -0.455756      1.107441
  C      -0.986055     -0.339843      0.446035
  C      -0.681996     -0.519115     -1.048582
  C      -0.051698      0.849200     -0.750234
  O      -1.098511      1.078941      0.214752
  H       1.541869      1.390682      0.655387
  H       1.964527      0.015430     -0.412476
  H       0.784761     -1.485874      1.098105
  H       0.381102     -0.087017      2.142190
  H      -1.849916     -0.796676      0.947706
  H      -1.582075     -0.438400     -1.671873
  H      -0.036337     -1.350709     -1.370879
  H       0.064326      1.639790     -1.504013
14
Coordinates from ORCA-job p0_C5H8O_conf0_opt_orca E -270.018403608533
  C       1.151298      0.499663      0.146233
  C       0.399945     -0.456194      1.108494
  C      -0.983449     -0.342816      0.444821
  C      -0.683532     -0.520170     -1.051059
  C      -0.049459      0.846276     -0.750976
  O      -1.097507      1.077759      0.214770
  H       1.540798      1.393998      0.652704
  H       1.970697      0.018667     -0.408998
  H       0.788326     -1.485885      1.106233
  H       0.376433     -0.086537      2.143328
  H      -1.848778     -0.797759      0.947375
  H      -1.586763     -0.431958     -1.669147
  H      -0.043189     -1.354256     -1.380254
  H       0.065181      1.639211     -1.503622
