14
Generated by autodE on: 2025-05-23. charge = 0 mult = 1 E = -270.018404 Ha
C      1.15130    0.49966    0.14623
C      0.39994   -0.45619    1.10849
C     -0.98345   -0.34282    0.44482
C     -0.68353   -0.52017   -1.05106
C     -0.04946    0.84628   -0.75098
O     -1.09751    1.07776    0.21477
H      1.54080    1.39400    0.65270
H      1.97070    0.01867   -0.40900
H      0.78833   -1.48589    1.10623
H      0.37643   -0.08654    2.14333
H     -1.84878   -0.79776    0.94738
H     -1.58676   -0.43196   -1.66915
H     -0.04319   -1.35426   -1.38025
H      0.06518    1.63921   -1.50362
