16
Generated by autodE on: 2025-05-23. charge = 0 mult = 2 E = -345.606873 Ha
O      2.15567   -1.15761    1.08520
O      1.53975    0.05207    0.68123
C      0.71203   -0.22557   -0.43248
C     -0.43601   -1.17750   -0.07420
C     -1.49933   -0.27432    0.45903
C     -1.16564    1.16159    0.22527
C      0.01753    1.09464   -0.75616
H      3.08310   -0.97493    0.87513
H      1.33400   -0.61119   -1.26238
H     -0.10601   -1.95654    0.63150
H     -0.76573   -1.70270   -0.99587
H     -2.37253   -0.61862    1.02058
H     -0.84386    1.64798    1.16923
H     -2.00986    1.75726   -0.16409
H      0.70726    1.94724   -0.66822
H     -0.35005    1.03840   -1.79377
