16
Generated by autodE on: 2025-05-23. charge = 0 mult = 2 E = -23.276733 Ha
O      2.71400   -1.07129    0.33909
O      1.71764   -0.22127    0.91287
C      0.73710    0.07253   -0.05042
C     -0.17780   -1.11056   -0.41518
C     -1.49314   -0.48066   -0.64702
C     -1.51603    0.93621   -0.21648
C     -0.21018    1.10921    0.56412
H      3.43361   -0.98887    0.97765
H      1.22122    0.46606   -0.95452
H     -0.20204   -1.81017    0.43331
H      0.19221   -1.67660   -1.27467
H     -2.32786   -0.98357   -1.09449
H     -2.39617    1.18173    0.38571
H     -1.53478    1.61324   -1.08348
H     -0.35243    0.84667    1.61286
H      0.19483    2.11734    0.51055
