! LooseOpt PBE0 RIJCOSX D3BJ def2-SVP def2/J 
%geom MaxIter 10 end
%output 
xyzfile=True 
end 
%scf 
maxiter 250 
end
%output
Print[P_Hirshfeld] = 1
end
% maxcore
4000
%pal nprocs 8
end
*xyz 0 2
O    2.33596228  -1.21769116   0.80387963 
O    1.60359685  -0.01737690   0.54307239 
C    0.67994756  -0.24400517  -0.49946335 
C   -0.46570980  -1.17833912  -0.07559063 
C   -1.50775291  -0.26743182   0.44575879 
C   -1.16698659   1.15487472   0.22277029 
C    0.00919914   1.10910887  -0.75903991 
H    3.06973060  -0.88780791   1.33718345 
H    1.22331993  -0.62491797  -1.37406939 
H   -0.11737840  -1.90242474   0.66745298 
H   -0.81669048  -1.75795368  -0.93975699 
H   -2.34635199  -0.59508244   1.02744724 
H   -0.85765500   1.63631678   1.16162002 
H   -2.00879477   1.73756728  -0.16444209 
H    0.71621217   1.92253911  -0.60977871 
H   -0.35034861   1.13282416  -1.78704371 
*
