! EnGrad PBE0 RIJCOSX D3BJ def2-SVP def2/J 
%output 
xyzfile=True 
end 
%scf 
maxiter 250 
end
%output
Print[P_Hirshfeld] = 1
end
% maxcore
4000
*xyz 0 2
O   -2.19867000  -0.95154000   0.99381000 
O   -0.76850000   0.12633000   1.01754000 
C   -0.65793000   0.58121000  -0.28553000 
C    0.52241000   1.40626000   0.13336000 
C    1.59340000   0.51020000   0.22482000 
C    1.18135000  -0.71033000  -0.27482000 
C   -0.09687000  -0.60480000  -1.03843000 
H   -2.15557000  -1.07064000   1.95402000 
H   -1.55224000   1.09292000  -0.67104000 
H    0.46002000   2.42269000   0.52040000 
H    2.55457000   0.70750000   0.70132000 
H    1.79498000  -1.61428000  -0.24579000 
H    0.09171000  -0.43038000  -2.11348000 
H   -0.76867000  -1.46504000  -0.91620000 
*
