! EnGrad PBE0 RIJCOSX D3BJ def2-SVP def2/J 
%output 
xyzfile=True 
end 
%scf 
maxiter 250 
end
%output
Print[P_Hirshfeld] = 1
end
% maxcore
4000
*xyz 0 2
O   -2.13589748  -0.90107066   0.99871097 
O   -0.90292952   0.10659332   1.06351185 
C   -0.65801513   0.57934922  -0.28659642 
C    0.52010253   1.40470844   0.13570855 
C    1.59378143   0.50902119   0.22477240 
C    1.25561943  -0.74095213  -0.32515851 
C   -0.09531450  -0.60531270  -1.04039741 
H   -2.15860533  -1.06042672   1.95799363 
H   -1.55331193   1.09000837  -0.67131501 
H    0.45635369   2.41972197   0.52487375 
H    2.55385568   0.70750795   0.70245510 
H    1.79784815  -1.61306558  -0.25039074 
H    0.09271242  -0.42952097  -2.11533943 
H   -0.76623314  -1.46652578  -0.91908200 
*
