! EnGrad PBE0 RIJCOSX D3BJ def2-SVP def2/J 
%output 
xyzfile=True 
end 
%scf 
maxiter 250 
end
%output
Print[P_Hirshfeld] = 1
end
% maxcore
4000
*xyz 0 2
O   -2.12718294  -0.89280762   1.00076212 
O   -0.91551320   0.09920053   1.05928857 
C   -0.65892869   0.57797006  -0.27778633 
C    0.52369701   1.40228490   0.13340776 
C    1.59255476   0.50672729   0.22315017 
C    1.24327006  -0.72237259  -0.32788343 
C   -0.08944336  -0.60772219  -1.03800262 
H   -2.15904576  -1.05852417   1.95692658 
H   -1.55294922   1.08946767  -0.67227807 
H    0.45603816   2.41921535   0.52553891 
H    2.55395900   0.70826806   0.70282538 
H    1.80744176  -1.62586431  -0.25073852 
H    0.09154722  -0.42863654  -2.11558163 
H   -0.76544182  -1.46717622  -0.91987984 
*
