! EnGrad PBE0 RIJCOSX D3BJ def2-SVP def2/J 
%output 
xyzfile=True 
end 
%scf 
maxiter 250 
end
%output
Print[P_Hirshfeld] = 1
end
% maxcore
4000
*xyz 0 2
O   -2.59969443   0.69748820   1.89684314 
O   -0.58349797  -0.38711087   0.93653337 
C   -0.73036318   0.13949356  -0.43296354 
C    0.15257317   0.86143113   0.52170545 
C    1.54144795   0.46306936   0.23059372 
C    1.53315788  -0.63252868  -0.65006787 
C    0.12349506  -0.67412438  -1.34643865 
H   -2.12002777  -0.13969780   2.16082451 
H   -1.76753204   0.42898266  -0.62217128 
H   -0.18963529   1.71167074   1.11409505 
H    2.43279121   0.77157437   0.77601230 
H    2.20767755  -1.29333495  -0.77412770 
H    0.28814089  -0.25619777  -2.35349591 
H   -0.28823573  -1.69026500  -1.45720307 
*
