! EnGrad PBE0 RIJCOSX D3BJ def2-SVP def2/J 
%output 
xyzfile=True 
end 
%scf 
maxiter 250 
end
%output
Print[P_Hirshfeld] = 1
end
% maxcore
4000
*xyz 0 2
O   -2.59648392   0.69263028   1.89813759 
O   -0.57931746  -0.37794275   0.92603708 
C   -0.72860999   0.13690884  -0.42137061 
C    0.14681314   0.85310737   0.52282358 
C    1.54469802   0.44549003   0.22049774 
C    1.48705971  -0.58369308  -0.63447034 
C    0.13344132  -0.67829861  -1.34405855 
H   -2.12427505  -0.13413593   2.16011550 
H   -1.76664285   0.43011403  -0.62420269 
H   -0.18840283   1.71285546   1.11296758 
H    2.43227381   0.77229452   0.77728816 
H    2.24178184  -1.32289203  -0.78227729 
H    0.28560271  -0.25560082  -2.35388844 
H   -0.28758355  -1.69040628  -1.45748261 
*
