12
Generated by autodE on: 2025-05-23. charge = 0 mult = 1 E = -17.739690 Ha
C      1.07643   -0.77768   -0.18379
C      1.23105    0.52991   -0.02712
C     -0.20964    1.02333   -0.19527
C     -0.95327    0.02723    0.71624
C     -0.43408   -0.87343   -0.42187
O     -0.64296    0.23412   -1.32337
H      1.77128   -1.59143   -0.17410
H      2.09384    1.13670    0.15297
H     -0.42803    2.08327   -0.24973
H     -2.03248    0.15731    0.69545
H     -0.58360   -0.13704    1.72541
H     -0.88862   -1.81238   -0.71499
