12
Coordinates from ORCA-job p0_C5H6O_conf0_opt_orca E -268.759159835860
  C       1.076431     -0.777680     -0.183795
  C       1.231047      0.529907     -0.027121
  C      -0.209636      1.023328     -0.195272
  C      -0.953269      0.027227      0.716239
  C      -0.434084     -0.873428     -0.421870
  O      -0.642965      0.234121     -1.323374
  H       1.771280     -1.591427     -0.174103
  H       2.093841      1.136699      0.152965
  H      -0.428032      2.083268     -0.249731
  H      -2.032483      0.157308      0.695445
  H      -0.583605     -0.137039      1.725406
  H      -0.888624     -1.812385     -0.714990
12
Coordinates from ORCA-job p0_C5H6O_conf0_opt_orca E -268.760796575861
  C       1.086994     -0.781876     -0.190270
  C       1.242516      0.532945     -0.033095
  C      -0.208543      1.021501     -0.193345
  C      -0.966195      0.028146      0.720948
  C      -0.432552     -0.872306     -0.419711
  O      -0.663416      0.236431     -1.320725
  H       1.798128     -1.607359     -0.179859
  H       2.123856      1.146898      0.149610
  H      -0.428820      2.094906     -0.248704
  H      -2.058264      0.161227      0.687069
  H      -0.601798     -0.137283      1.744813
  H      -0.892004     -1.823330     -0.716931
12
Coordinates from ORCA-job p0_C5H6O_conf0_opt_orca E -268.760868371316
  C       1.086647     -0.783014     -0.192650
  C       1.242488      0.534604     -0.035061
  C      -0.208529      1.020176     -0.192948
  C      -0.967199      0.027934      0.723824
  C      -0.432200     -0.871169     -0.419003
  O      -0.664337      0.236668     -1.321489
  H       1.800644     -1.606217     -0.179603
  H       2.126015      1.145151      0.149578
  H      -0.428620      2.094464     -0.249708
  H      -2.058802      0.161472      0.685279
  H      -0.604538     -0.137438      1.749363
  H      -0.891667     -1.822732     -0.717783
12
Coordinates from ORCA-job p0_C5H6O_conf0_opt_orca E -268.760900939043
  C       1.085563     -0.783637     -0.194895
  C       1.241638      0.535930     -0.037054
  C      -0.208493      1.019037     -0.192379
  C      -0.967251      0.027662      0.726151
  C      -0.431874     -0.870250     -0.418188
  O      -0.667088      0.236929     -1.320472
  H       1.803640     -1.602593     -0.178508
  H       2.128068      1.140787      0.149628
  H      -0.428335      2.093428     -0.250301
  H      -2.058101      0.161741      0.681882
  H      -0.606715     -0.137476      1.752084
  H      -0.891152     -1.821658     -0.718148
