12
Generated by autodE on: 2025-05-23. charge = 0 mult = 1 E = -268.760901 Ha
C      1.08556   -0.78364   -0.19490
C      1.24164    0.53593   -0.03705
C     -0.20849    1.01904   -0.19238
C     -0.96725    0.02766    0.72615
C     -0.43187   -0.87025   -0.41819
O     -0.66709    0.23693   -1.32047
H      1.80364   -1.60259   -0.17851
H      2.12807    1.14079    0.14963
H     -0.42833    2.09343   -0.25030
H     -2.05810    0.16174    0.68188
H     -0.60672   -0.13748    1.75208
H     -0.89115   -1.82166   -0.71815
