14
Generated by autodE on: 2025-05-23. charge = 0 mult = 2 E = -22.247977 Ha
O     -2.59337   -0.52875    0.71420
O     -1.35377    0.06691    1.11930
C     -0.59250    0.39777   -0.02289
C      0.57425    1.21541    0.43453
C      1.75207    0.61873    0.04399
C      1.51552   -0.54893   -0.64429
C      0.05289   -0.81831   -0.72640
H     -3.04670   -0.62961    1.56061
H     -1.24321    0.95988   -0.71214
H      0.45691    2.11330    1.00806
H      2.72916    1.02141    0.24809
H      2.25494   -1.20321   -1.06634
H     -0.28795   -0.92782   -1.75837
H     -0.21824   -1.73669   -0.19837
