14
Generated by autodE on: 2025-05-23. charge = 0 mult = 2 E = -344.396809 Ha
O     -2.57986   -0.38898    0.74955
O     -1.35375    0.21555    1.15413
C     -0.62234    0.48639   -0.02543
C      0.57953    1.28684    0.38143
C      1.74129    0.59346    0.06775
C      1.44901   -0.61579   -0.55155
C     -0.03321   -0.77658   -0.69412
H     -2.58670   -1.16848    1.32124
H     -1.28633    1.04487   -0.71242
H      0.51141    2.25453    0.87887
H      2.75129    0.95425    0.27500
H      2.18425   -1.34251   -0.90127
H     -0.33535   -0.86418   -1.75221
H     -0.41925   -1.67929   -0.19096
