14
Coordinates from ORCA-job r0_C5H7O2_conf1_opt_orca E -344.393979180570
  O      -2.593366     -0.528745      0.714204
  O      -1.353774      0.066912      1.119302
  C      -0.592500      0.397768     -0.022885
  C       0.574245      1.215406      0.434527
  C       1.752072      0.618731      0.043990
  C       1.515517     -0.548932     -0.644289
  C       0.052885     -0.818315     -0.726397
  H      -3.046701     -0.629609      1.560614
  H      -1.243207      0.959883     -0.712143
  H       0.456910      2.113300      1.008062
  H       2.729162      1.021415      0.248092
  H       2.254945     -1.203209     -1.066343
  H      -0.287948     -0.927816     -1.758367
  H      -0.218239     -1.736688     -0.198366
14
Coordinates from ORCA-job r0_C5H7O2_conf1_opt_orca E -344.396256217178
  O      -2.551558     -0.529987      0.670401
  O      -1.345314      0.069278      1.139954
  C      -0.600069      0.398284     -0.006694
  C       0.569266      1.220511      0.444608
  C       1.753646      0.622347      0.042021
  C       1.509871     -0.557121     -0.644283
  C       0.038137     -0.821442     -0.715020
  H      -3.016210     -0.635386      1.509834
  H      -1.262777      0.962620     -0.692980
  H       0.454224      2.139584      1.019889
  H       2.746734      1.033329      0.237927
  H       2.261259     -1.221401     -1.075024
  H      -0.315885     -0.937059     -1.752981
  H      -0.241325     -1.743458     -0.177653
14
Coordinates from ORCA-job r0_C5H7O2_conf1_opt_orca E -344.396376645286
  O      -2.542887     -0.544239      0.659851
  O      -1.347764      0.077367      1.142803
  C      -0.600755      0.406348     -0.003224
  C       0.573356      1.227273      0.442449
  C       1.757334      0.621564      0.042894
  C       1.506509     -0.561147     -0.640563
  C       0.031517     -0.816259     -0.710714
  H      -3.006069     -0.666044      1.498427
  H      -1.264392      0.970916     -0.688480
  H       0.464740      2.153539      1.008220
  H       2.753084      1.028129      0.236867
  H       2.257874     -1.228461     -1.067593
  H      -0.324152     -0.933663     -1.748512
  H      -0.258394     -1.735223     -0.172424
14
Coordinates from ORCA-job r0_C5H7O2_conf1_opt_orca E -344.396423263279
  O      -2.536763     -0.552949      0.652723
  O      -1.350481      0.087762      1.143133
  C      -0.601442      0.415690     -0.002998
  C       0.576313      1.233122      0.439187
  C       1.758465      0.619332      0.044711
  C       1.501668     -0.565965     -0.634449
  C       0.025237     -0.810366     -0.707978
  H      -2.987341     -0.705739      1.493349
  H      -1.264273      0.982021     -0.687272
  H       0.475283      2.166670      0.993536
  H       2.755996      1.020413      0.237917
  H       2.253752     -1.235775     -1.055005
  H      -0.328909     -0.928505     -1.746035
  H      -0.277504     -1.725610     -0.170819
14
Coordinates from ORCA-job r0_C5H7O2_conf1_opt_orca E -344.396446607591
  O      -2.536560     -0.549652      0.650919
  O      -1.352073      0.096321      1.141790
  C      -0.602317      0.422285     -0.005311
  C       0.577167      1.236952      0.435785
  C       1.757673      0.616905      0.047041
  C       1.497823     -0.569750     -0.628905
  C       0.021197     -0.806587     -0.707621
  H      -2.966486     -0.740618      1.494591
  H      -1.264115      0.990255     -0.689076
  H       0.481297      2.175373      0.982315
  H       2.756356      1.013856      0.241325
  H       2.251070     -1.241586     -1.043421
  H      -0.329774     -0.924000     -1.746774
  H      -0.291259     -1.719654     -0.172658
14
Coordinates from ORCA-job r0_C5H7O2_conf1_opt_orca E -344.396507444790
  O      -2.542679     -0.523575      0.651939
  O      -1.355757      0.124006      1.138302
  C      -0.605912      0.441477     -0.013260
  C       0.578460      1.248818      0.424241
  C       1.753756      0.609376      0.054471
  C       1.485379     -0.581678     -0.610576
  C       0.008498     -0.796325     -0.706855
  H      -2.887448     -0.855188      1.491161
  H      -1.265206      1.013245     -0.695849
  H       0.497064      2.200301      0.949215
  H       2.755864      0.994192      0.253022
  H       2.241294     -1.261223     -1.006043
  H      -0.331261     -0.909946     -1.750182
  H      -0.332053     -1.703378     -0.179587
14
Coordinates from ORCA-job r0_C5H7O2_conf1_opt_orca E -344.396570593608
  O      -2.552561     -0.489394      0.665496
  O      -1.357228      0.151826      1.137880
  C      -0.610476      0.458456     -0.020418
  C       0.578641      1.260750      0.411486
  C       1.748834      0.602363      0.061505
  C       1.472661     -0.593283     -0.591760
  C      -0.004444     -0.787661     -0.705945
  H      -2.797025     -0.964954      1.469909
  H      -1.268961      1.031563     -0.702244
  H       0.508934      2.222299      0.919115
  H       2.753981      0.976164      0.264966
  H       2.228944     -1.282525     -0.968969
  H      -0.332179     -0.895600     -1.753913
  H      -0.369121     -1.689903     -0.187109
14
Coordinates from ORCA-job r0_C5H7O2_conf1_opt_orca E -344.396689935738
  O      -2.565231     -0.446854      0.694351
  O      -1.356503      0.180281      1.141556
  C      -0.615791      0.473091     -0.025612
  C       0.578395      1.272805      0.398010
  C       1.743599      0.596551      0.066745
  C       1.459962     -0.604562     -0.572262
  C      -0.017837     -0.781082     -0.703070
  H      -2.697678     -1.068439      1.421853
  H      -1.275369      1.043921     -0.707640
  H       0.516230      2.240962      0.894192
  H       2.751535      0.961540      0.273684
  H       2.212680     -1.306570     -0.933390
  H      -0.333217     -0.881092     -1.755909
  H      -0.400774     -1.680451     -0.192506
14
Coordinates from ORCA-job r0_C5H7O2_conf1_opt_orca E -344.396814440074
  O      -2.580074     -0.391298      0.752562
  O      -1.351482      0.212437      1.153198
  C      -0.622689      0.485709     -0.027864
  C       0.577725      1.286448      0.381052
  C       1.738405      0.591913      0.069907
  C       1.447261     -0.616371     -0.550598
  C      -0.032768     -0.776694     -0.697134
  H      -2.583579     -1.168427      1.326858
  H      -1.286959      1.047797     -0.711641
  H       0.515961      2.257314      0.872868
  H       2.748775      0.950568      0.279143
  H       2.189327     -1.337704     -0.897158
  H      -0.333986     -0.864635     -1.755595
  H      -0.425919     -1.676956     -0.195597
14
Coordinates from ORCA-job r0_C5H7O2_conf1_opt_orca E -344.396809285582
  O      -2.581690     -0.394764      0.742037
  O      -1.354144      0.203984      1.147677
  C      -0.620092      0.479399     -0.028656
  C       0.578410      1.281733      0.385371
  C       1.742750      0.595088      0.067288
  C       1.456075     -0.611082     -0.559424
  C      -0.025416     -0.779719     -0.700696
  H      -2.630600     -1.132456      1.364690
  H      -1.282535      1.038855     -0.716455
  H       0.505485      2.244894      0.891091
  H       2.751280      0.959109      0.277009
  H       2.193807     -1.332814     -0.914788
  H      -0.328977     -0.867069     -1.758426
  H      -0.404352     -1.685055     -0.196720
