! LooseOpt PBE0 RIJCOSX D3BJ def2-SVP def2/J 
%geom MaxIter 10 end
%output 
xyzfile=True 
end 
%scf 
maxiter 250 
end
%output
Print[P_Hirshfeld] = 1
end
% maxcore
4000
%pal nprocs 8
end
*xyz 0 2
O   -2.59336633  -0.52874523   0.71420397 
O   -1.35377423   0.06691175   1.11930204 
C   -0.59250018   0.39776819  -0.02288531 
C    0.57424545   1.21540636   0.43452653 
C    1.75207190   0.61873068   0.04399032 
C    1.51551688  -0.54893203  -0.64428935 
C    0.05288538  -0.81831492  -0.72639702 
H   -3.04670099  -0.62960921   1.56061432 
H   -1.24320743   0.95988288  -0.71214331 
H    0.45690987   2.11330032   1.00806213 
H    2.72916229   1.02141461   0.24809229 
H    2.25494497  -1.20320949  -1.06634322 
H   -0.28794843  -0.92781567  -1.75836713 
H   -0.21823915  -1.73668824  -0.19836626 
*
