! EnGrad PBE0 RIJCOSX D3BJ def2-SVP def2/J 
%output 
xyzfile=True 
end 
%scf 
maxiter 250 
end
%output
Print[P_Hirshfeld] = 1
end
% maxcore
4000
*xyz 0 2
O   -2.38244176  -0.21425681   1.58897143 
O   -0.55373197  -0.29201471   0.84922618 
C   -0.73856498   0.21529382  -0.43822397 
C    0.15146248   0.90347479   0.53068362 
C    1.52121895   0.43118291   0.27667028 
C    1.36772553  -0.61979182  -0.53062186 
C    0.09653432  -0.65431609  -1.31710017 
H   -2.10169174   0.38409403   2.30124120 
H   -1.74266249   0.58107541  -0.67048660 
H   -0.13445425   1.80146482   1.08355724 
H    2.41638763   0.71045813   0.83052781 
H    2.18379360  -1.30962292  -0.77012070 
H    0.26133068  -0.27628738  -2.34035796 
H   -0.34490600  -1.66065883  -1.39397117 
*
