! EnGrad PBE0 RIJCOSX D3BJ def2-SVP def2/J 
%output 
xyzfile=True 
end 
%scf 
maxiter 250 
end
%output
Print[P_Hirshfeld] = 1
end
% maxcore
4000
*xyz 0 2
O   -2.46555215  -0.20863065   1.62282431 
O   -0.58665994  -0.27660903   0.89741993 
C   -0.73584501   0.22044375  -0.43161327 
C    0.14939944   0.90482646   0.52500561 
C    1.52690626   0.41357319   0.27131876 
C    1.45056044  -0.60092028  -0.60444013 
C    0.10487406  -0.66062211  -1.31466170 
H   -2.10130009   0.38194823   2.29855965 
H   -1.74389859   0.57710967  -0.66967277 
H   -0.13413527   1.80440964   1.08210699 
H    2.41687580   0.71071677   0.83377220 
H    2.20801946  -1.33057649  -0.77694984 
H    0.25720530  -0.27425546  -2.33903086 
H   -0.34623463  -1.66140003  -1.39410181 
*
