16
Coordinates from ORCA-job p0_C6H10_opt_orca E -234.206943509109
  C       0.253425      1.496892     -0.314029
  C      -1.021230      1.163597     -0.078775
  C      -1.459586     -0.231121      0.259815
  C      -0.283757     -1.127599      0.635170
  C       0.879083     -0.934347     -0.330875
  C       1.380239      0.505910     -0.300387
  H       0.502930      2.541300     -0.531255
  H      -1.795407      1.937125     -0.129638
  H      -2.197869     -0.200212      1.079391
  H      -2.005413     -0.659821     -0.602776
  H       0.052610     -0.873945      1.656374
  H      -0.599813     -2.182352      0.664362
  H       1.700684     -1.631437     -0.102124
  H       0.538909     -1.176689     -1.353563
  H       2.000836      0.674802      0.600859
  H       2.054460      0.698197     -1.152550
16
Coordinates from ORCA-job p0_C6H10_opt_orca E -234.206945216037
  C       0.253371      1.496652     -0.313852
  C      -1.021052      1.163404     -0.078811
  C      -1.459806     -0.231075      0.259674
  C      -0.283822     -1.127540      0.635199
  C       0.879110     -0.934292     -0.330918
  C       1.380387      0.506087     -0.300293
  H       0.502622      2.541133     -0.530862
  H      -1.795014      1.937084     -0.129941
  H      -2.197430     -0.199790      1.079789
  H      -2.006022     -0.659749     -0.602520
  H       0.052226     -0.874556      1.656502
  H      -0.599915     -2.182292      0.663249
  H       1.700662     -1.631028     -0.101029
  H       0.539566     -1.177069     -1.353543
  H       2.001420      0.675161      0.600461
  H       2.053796      0.698168     -1.153106
16
Coordinates from ORCA-job p0_C6H10_opt_orca E -234.206946175010
  C       0.253368      1.496494     -0.313565
  C      -1.020957      1.163229     -0.078947
  C      -1.460236     -0.230989      0.259543
  C      -0.284044     -1.127585      0.635068
  C       0.879312     -0.934208     -0.330776
  C       1.380687      0.506395     -0.300268
  H       0.502269      2.541166     -0.530173
  H      -1.794644      1.937190     -0.130484
  H      -2.196723     -0.199089      1.080670
  H      -2.007282     -0.659726     -0.601959
  H       0.051432     -0.875828      1.656724
  H      -0.600210     -2.182390      0.661097
  H       1.700810     -1.630362     -0.098846
  H       0.540935     -1.177841     -1.353443
  H       2.002673      0.675771      0.599638
  H       2.052710      0.698072     -1.154281
