! Opt PBE0 RIJCOSX D3BJ def2-SVP def2/J 
%output 
xyzfile=True 
end 
%scf 
maxiter 250 
end
%output
Print[P_Hirshfeld] = 1
end
% maxcore
4000
%pal nprocs 8
end
*xyz 0 1
C    0.25342482   1.49689197  -0.31402883 
C   -1.02123044   1.16359653  -0.07877468 
C   -1.45958630  -0.23112079   0.25981475 
C   -0.28375729  -1.12759923   0.63517043 
C    0.87908313  -0.93434744  -0.33087481 
C    1.38023934   0.50590995  -0.30038682 
H    0.50292991   2.54130002  -0.53125511 
H   -1.79540718   1.93712524  -0.12963806 
H   -2.19786858  -0.20021214   1.07939116 
H   -2.00541315  -0.65982086  -0.60277563 
H    0.05260995  -0.87394463   1.65637380 
H   -0.59981306  -2.18235177   0.66436167 
H    1.70068393  -1.63143711  -0.10212398 
H    0.53890855  -1.17668861  -1.35356319 
H    2.00083605   0.67480161   0.60085914 
H    2.05446031   0.69819726  -1.15254987 
*
