10
Coordinates from ORCA-job r0_C4H6_opt_orca E -155.686077937794
  C      -1.841311      0.119467     -0.132713
  C      -0.559562      0.462273     -0.323674
  C       0.559546     -0.462181     -0.222882
  C       1.841317     -0.119451     -0.413839
  H      -2.650197      0.848584     -0.219316
  H      -2.122393     -0.908614      0.117411
  H      -0.311068      1.501136     -0.573354
  H       0.311030     -1.501040      0.026797
  H       2.122532      0.908597     -0.663942
  H       2.650106     -0.848673     -0.327189
10
Coordinates from ORCA-job r0_C4H6_opt_orca E -155.686079192929
  C      -1.840778      0.119312     -0.132714
  C      -0.559385      0.462099     -0.323648
  C       0.559375     -0.462028     -0.222897
  C       1.840782     -0.119293     -0.413828
  H      -2.649237      0.848857     -0.219464
  H      -2.121787     -0.908712      0.117360
  H      -0.311345      1.501014     -0.573305
  H       0.311320     -1.500940      0.026760
  H       2.121882      0.908704     -0.663906
  H       2.649172     -0.848913     -0.327057
