! Opt PBE0 RIJCOSX D3BJ def2-SVP def2/J 
%output 
xyzfile=True 
end 
%scf 
maxiter 250 
end
%output
Print[P_Hirshfeld] = 1
end
% maxcore
4000
%pal nprocs 8
end
*xyz 0 1
C   -1.84131063   0.11946683  -0.13271314 
C   -0.55956212   0.46227263  -0.32367388 
C    0.55954643  -0.46218052  -0.22288172 
C    1.84131671  -0.11945059  -0.41383891 
H   -2.65019748   0.84858425  -0.21931570 
H   -2.12239323  -0.90861368   0.11741069 
H   -0.31106823   1.50113628  -0.57335412 
H    0.31103042  -1.50103966   0.02679716 
H    2.12253208   0.90859707  -0.66394151 
H    2.65010603  -0.84867264  -0.32718887 
*
