10
Generated by autodE on: 2025-05-23. charge = 0 mult = 1 E = -155.686079 Ha
C     -1.84078    0.11931   -0.13271
C     -0.55938    0.46210   -0.32365
C      0.55937   -0.46203   -0.22290
C      1.84078   -0.11929   -0.41383
H     -2.64924    0.84886   -0.21946
H     -2.12179   -0.90871    0.11736
H     -0.31134    1.50101   -0.57331
H      0.31132   -1.50094    0.02676
H      2.12188    0.90870   -0.66391
H      2.64917   -0.84891   -0.32706
