6
Coordinates from ORCA-job r1_C2H4_opt_orca E -78.427524545653
  C      -0.629990     -0.207289     -0.050239
  C       0.629717      0.207230      0.050164
  H      -1.402198      0.403208     -0.528751
  H      -0.951527     -1.177417      0.341526
  H       1.402176     -0.403020      0.528645
  H       0.951721      1.177289     -0.341445
6
Coordinates from ORCA-job r1_C2H4_opt_orca E -78.427527254839
  C      -0.630097     -0.207334     -0.050238
  C       0.629900      0.207298      0.050184
  H      -1.401582      0.403712     -0.528854
  H      -0.950781     -1.177478      0.341733
  H       1.401554     -0.403587      0.528763
  H       0.950906      1.177388     -0.341688
6
Coordinates from ORCA-job r1_C2H4_opt_orca E -78.427529363464
  C      -0.630193     -0.207386     -0.050235
  C       0.630147      0.207385      0.050200
  H      -1.400417      0.404887     -0.529146
  H      -0.949262     -1.177772      0.342240
  H       1.400382     -0.404883      0.529107
  H       0.949244      1.177769     -0.342265
6
Coordinates from ORCA-job r1_C2H4_opt_orca E -78.427529372186
  C      -0.630169     -0.207378     -0.050233
  C       0.630129      0.207378      0.050198
  H      -1.400378      0.404926     -0.529154
  H      -0.949210     -1.177781      0.342255
  H       1.400342     -0.404923      0.529118
  H       0.949186      1.177778     -0.342284
