! EnGrad PBE0 RIJCOSX D3BJ def2-SVP def2/J 
%output 
xyzfile=True 
end 
%scf 
maxiter 250 
end
%output
Print[P_Hirshfeld] = 1
end
% maxcore
4000
*xyz 0 2
O   -2.33557426  -0.76728001   1.31401965 
O   -0.64643259   0.01336731   0.97925477 
C   -0.66817671   0.41766909  -0.35742766 
C    0.32838333   1.17933510   0.33677535 
C    1.58232372   0.44492710   0.23124933 
C    1.38018777  -0.68827478  -0.47872511 
C   -0.00263514  -0.61543633  -1.19788271 
H   -2.27672868  -0.30698024   2.15889593 
H   -1.63992477   0.87531490  -0.66264243 
H    0.18699343   2.17128094   0.83006859 
H    2.50477647   0.68935473   0.77438128 
H    1.98768960  -1.50970982  -0.52755704 
H    0.17925101  -0.34385636  -2.24275803 
H   -0.57979349  -1.55923707  -1.15744633 
*
