! EnGrad PBE0 RIJCOSX D3BJ def2-SVP def2/J 
%output 
xyzfile=True 
end 
%scf 
maxiter 250 
end
%output
Print[P_Hirshfeld] = 1
end
% maxcore
4000
*xyz 0 2
O   -2.34049154  -0.77263578   1.31224480 
O   -0.63938183   0.02424631   0.97662495 
C   -0.68013806   0.41841167  -0.36112984 
C    0.33310459   1.18349277   0.34678344 
C    1.58674503   0.44374543   0.23089611 
C    1.36140039  -0.67159364  -0.48082685 
C    0.00444007  -0.62184836  -1.19248743 
H   -2.27826110  -0.31066310   2.15953303 
H   -1.63572608   0.87499438  -0.66271988 
H    0.18921940   2.16839382   0.82495315 
H    2.50349150   0.68942598   0.77380147 
H    1.99878036  -1.52393357  -0.52808346 
H    0.17721900  -0.34370664  -2.24363296 
H   -0.57998297  -1.55780609  -1.15581978 
*
