! EnGrad PBE0 RIJCOSX D3BJ def2-SVP def2/J 
%output 
xyzfile=True 
end 
%scf 
maxiter 250 
end
%output
Print[P_Hirshfeld] = 1
end
% maxcore
4000
%pal nprocs 8
end
*xyz 0 2
O   -2.58148000  -0.38914000   0.74681000 
O   -1.35598000   0.21684000   1.15444000 
C   -0.62172000   0.48691000  -0.02397000 
C    0.58045000   1.28604000   0.38299000 
C    1.74193000   0.59377000   0.06710000 
C    1.44893000  -0.61491000  -0.55303000 
C   -0.03336000  -0.77666000  -0.69185000 
H   -2.58640000  -1.16996000   1.31665000 
H   -1.28391000   1.04649000  -0.71184000 
H    0.51170000   2.25410000   0.87951000 
H    2.75182000   0.95520000   0.27317000 
H    2.18296000  -1.34205000  -0.90409000 
H   -0.33774000  -0.86733000  -1.74901000 
H   -0.41720000  -1.67920000  -0.18690000 
*
