! EnGrad PBE0 RIJCOSX D3BJ def2-SVP def2/J 
%output 
xyzfile=True 
end 
%scf 
maxiter 250 
end
%output
Print[P_Hirshfeld] = 1
end
% maxcore
4000
*xyz 0 2
O   -2.39849000  -0.77514000   0.89316000 
O   -1.01364000   0.14896000   1.11434000 
C   -0.64662000   0.54475000  -0.17376000 
C    0.55317000   1.37528000   0.19241000 
C    1.66365000   0.53565000   0.17856000 
C    1.32194000  -0.69476000  -0.36428000 
C   -0.06777000  -0.66237000  -0.90740000 
H   -2.37355000  -1.13001000   1.79417000 
H   -1.47045000   1.07209000  -0.68277000 
H    0.49405000   2.39068000   0.58323000 
H    2.65627000   0.80202000   0.54709000 
H    2.00650000  -1.53801000  -0.47617000 
H   -0.05116000  -0.51477000  -2.00358000 
H   -0.67391000  -1.55427000  -0.69497000 
*
