! EnGrad PBE0 RIJCOSX D3BJ def2-SVP def2/J 
%output 
xyzfile=True 
end 
%scf 
maxiter 250 
end
%output
Print[P_Hirshfeld] = 1
end
% maxcore
4000
*xyz 0 2
O   -2.27225083  -0.70170700   0.91571800 
O   -1.14904489   0.07734825   1.10828062 
C   -0.64849956   0.54637469  -0.17648891 
C    0.55213887   1.37702276   0.18848111 
C    1.66128051   0.53443909   0.18085221 
C    1.34161270  -0.70490880  -0.37623483 
C   -0.06858313  -0.65988792  -0.91226504 
H   -2.36421075  -1.13040767   1.79942934 
H   -1.47322732   1.07333412  -0.68233936 
H    0.49371491   2.39281774   0.57883875 
H    2.65255546   0.79841155   0.55278675 
H    1.99836720  -1.54151620  -0.46626483 
H   -0.04583043  -0.51078152  -2.00741100 
H   -0.67814127  -1.55074935  -0.70377038 
*
