! EnGrad PBE0 RIJCOSX D3BJ def2-SVP def2/J 
%output 
xyzfile=True 
end 
%scf 
maxiter 250 
end
%output
Print[P_Hirshfeld] = 1
end
% maxcore
4000
*xyz 0 2
O   -2.47696000   0.65823000   1.81502000 
O   -0.43752000  -0.39225000   0.81465000 
C   -0.72361000   0.14623000  -0.44384000 
C    0.15512000   0.86583000   0.51111000 
C    1.54332000   0.46201000   0.22990000 
C    1.38881000  -0.61276000  -0.54729000 
C    0.12890000  -0.67263000  -1.35286000 
H   -2.29696000  -0.13980000   2.34140000 
H   -1.75992000   0.43561000  -0.63852000 
H   -0.18350000   1.71800000   1.10346000 
H    2.43402000   0.76766000   0.77647000 
H    2.21849000  -1.28773000  -0.78670000 
H    0.29057000  -0.25867000  -2.36250000 
H   -0.28077000  -1.68962000  -1.46031000 
*
