! EnGrad PBE0 RIJCOSX D3BJ def2-SVP def2/J 
%output 
xyzfile=True 
end 
%scf 
maxiter 250 
end
%output
Print[P_Hirshfeld] = 1
end
% maxcore
4000
*xyz 0 2
O   -2.35501066  -0.29712770   1.63947248 
O   -0.54828580  -0.28722299   0.85845857 
C   -0.73683980   0.22124082  -0.42746072 
C    0.15962902   0.90865892   0.53332098 
C    1.52634470   0.42809551   0.27534490 
C    1.36648180  -0.61913532  -0.53590618 
C    0.09042730  -0.65049999  -1.31426617 
H   -2.13156651   0.44386056   2.22075275 
H   -1.74292919   0.57948416  -0.66258909 
H   -0.12098230   1.80746480   1.08818030 
H    2.42237454   0.70091945   0.83112642 
H    2.17836076  -1.31262206  -0.77857212 
H    0.24643514  -0.26773538  -2.33729717 
H   -0.35443901  -1.65528645  -1.39057062 
*
