! EnGrad PBE0 RIJCOSX D3BJ def2-SVP def2/J 
%output 
xyzfile=True 
end 
%scf 
maxiter 250 
end
%output
Print[P_Hirshfeld] = 1
end
% maxcore
4000
*xyz 0 2
O   -2.42901546  -0.30851891   1.67103610 
O   -0.57726782  -0.26942640   0.90760587 
C   -0.74008767   0.22694150  -0.42868772 
C    0.15866633   0.91168032   0.53032942 
C    1.52907273   0.42477000   0.28140118 
C    1.48011136  -0.63832830  -0.62329081 
C    0.08905675  -0.65339759  -1.30982189 
H   -2.13458427   0.45296761   2.21369330 
H   -1.74453930   0.57732023  -0.65724032 
H   -0.11824989   1.80994081   1.08789416 
H    2.42331131   0.69852669   0.83263986 
H    2.17739286  -1.31275254  -0.77983892 
H    0.24319322  -0.26530698  -2.33567710 
H   -0.35699079  -1.65405810  -1.38989308 
*
