! Opt PBE0 RIJCOSX D3BJ def2-SVP def2/J 
%output 
xyzfile=True 
end 
%scf 
maxiter 250 
end
%output
Print[P_Hirshfeld] = 1
end
% maxcore
4000
%pal nprocs 8
end
*xyz 0 1
C    1.15129797   0.49966336   0.14623320 
C    0.39994484  -0.45619375   1.10849364 
C   -0.98344928  -0.34281578   0.44482078 
C   -0.68353185  -0.52017029  -1.05105944 
C   -0.04945907   0.84627618  -0.75097589 
O   -1.09750706   1.07775886   0.21476971 
H    1.54079763   1.39399768   0.65270391 
H    1.97069717   0.01866712  -0.40899817 
H    0.78832568  -1.48588527   1.10623304 
H    0.37643295  -0.08653653   2.14332775 
H   -1.84877834  -0.79775866   0.94737533 
H   -1.58676289  -0.43195800  -1.66914716 
H   -0.04318862  -1.35425572  -1.38025439 
H    0.06518086   1.63921079  -1.50362230 
*
