14
Coordinates from ORCA-job p0_C5H8O_opt_orca E -270.018403609536
  C       1.151298      0.499663      0.146233
  C       0.399945     -0.456194      1.108494
  C      -0.983449     -0.342816      0.444821
  C      -0.683532     -0.520170     -1.051059
  C      -0.049459      0.846276     -0.750976
  O      -1.097507      1.077759      0.214770
  H       1.540798      1.393998      0.652704
  H       1.970697      0.018667     -0.408998
  H       0.788326     -1.485885      1.106233
  H       0.376433     -0.086537      2.143328
  H      -1.848778     -0.797759      0.947375
  H      -1.586763     -0.431958     -1.669147
  H      -0.043189     -1.354256     -1.380254
  H       0.065181      1.639211     -1.503622
14
Coordinates from ORCA-job p0_C5H8O_opt_orca E -270.018423101550
  C       1.151359      0.499472      0.145971
  C       0.399908     -0.456439      1.108395
  C      -0.982350     -0.344189      0.444320
  C      -0.683495     -0.520539     -1.051497
  C      -0.048451      0.845034     -0.751378
  O      -1.097028      1.077035      0.214590
  H       1.539827      1.394551      0.651161
  H       1.972708      0.020019     -0.406968
  H       0.789951     -1.485103      1.109497
  H       0.374329     -0.086476      2.142705
  H      -1.847945     -0.797990      0.946573
  H      -1.587798     -0.428638     -1.666611
  H      -0.046233     -1.355079     -1.383667
  H       0.065217      1.638341     -1.503192
14
Coordinates from ORCA-job p0_C5H8O_opt_orca E -270.018436648421
  C       1.151571      0.499160      0.145783
  C       0.400053     -0.456723      1.108384
  C      -0.980578     -0.346747      0.443397
  C      -0.683472     -0.521314     -1.052449
  C      -0.046739      0.842892     -0.752275
  O      -1.096247      1.075630      0.214147
  H       1.538466      1.395914      0.649304
  H       1.976855      0.021963     -0.403226
  H       0.793565     -1.484024      1.115463
  H       0.370990     -0.085694      2.142275
  H      -1.847323     -0.798821      0.945079
  H      -1.590556     -0.422104     -1.662209
  H      -0.051615     -1.357332     -1.390555
  H       0.065029      1.637200     -1.503217
14
Coordinates from ORCA-job p0_C5H8O_opt_orca E -270.018437158040
  C       1.151625      0.499158      0.145916
  C       0.400163     -0.456650      1.108472
  C      -0.980540     -0.347001      0.443344
  C      -0.683362     -0.521458     -1.052540
  C      -0.046641      0.842797     -0.752419
  O      -1.096203      1.075400      0.214022
  H       1.538500      1.395971      0.649516
  H       1.977175      0.021938     -0.402838
  H       0.794064     -1.483881      1.115933
  H       0.370971     -0.085348      2.142346
  H      -1.847557     -0.799043      0.944718
  H      -1.590892     -0.421262     -1.661647
  H      -0.052113     -1.357716     -1.391414
  H       0.064809      1.637094     -1.503510
