16
Coordinates from ORCA-job r0_C5H9O2_opt_orca E -345.607086765443
  O       2.155672     -1.157612      1.085197
  O       1.539754      0.052069      0.681229
  C       0.712026     -0.225569     -0.432476
  C      -0.436014     -1.177504     -0.074205
  C      -1.499334     -0.274316      0.459032
  C      -1.165644      1.161594      0.225270
  C       0.017530      1.094637     -0.756158
  H       3.083100     -0.974927      0.875133
  H       1.334003     -0.611190     -1.262385
  H      -0.106015     -1.956543      0.631496
  H      -0.765732     -1.702696     -0.995870
  H      -2.372532     -0.618623      1.020581
  H      -0.843861      1.647982      1.169234
  H      -2.009857      1.757258     -0.164088
  H       0.707258      1.947241     -0.668217
  H      -0.350055      1.038398     -1.793773
16
Coordinates from ORCA-job r0_C5H9O2_opt_orca E -345.607198793198
  O       2.149762     -1.150580      1.098158
  O       1.529477      0.055151      0.686489
  C       0.711018     -0.226277     -0.432682
  C      -0.436741     -1.178740     -0.077580
  C      -1.496438     -0.275610      0.459401
  C      -1.160658      1.159626      0.226679
  C       0.017961      1.093626     -0.757025
  H       3.071169     -0.973368      0.861951
  H       1.339638     -0.608107     -1.258236
  H      -0.103476     -1.958354      0.625876
  H      -0.768524     -1.706211     -0.995648
  H      -2.367337     -0.618529      1.021179
  H      -0.839693      1.646327      1.169256
  H      -2.005335      1.756103     -0.159053
  H       0.709439      1.944543     -0.675258
  H      -0.349964      1.040600     -1.793509
16
Coordinates from ORCA-job r0_C5H9O2_opt_orca E -345.607260897615
  O       2.140243     -1.141012      1.118792
  O       1.516840      0.059368      0.694203
  C       0.710889     -0.226516     -0.433484
  C      -0.435959     -1.179844     -0.082291
  C      -1.491893     -0.276991      0.460571
  C      -1.155108      1.157923      0.228701
  C       0.017963      1.093048     -0.758556
  H       3.053452     -0.979051      0.842773
  H       1.349669     -0.602887     -1.253632
  H      -0.096392     -1.959798      0.618379
  H      -0.770875     -1.712370     -0.995860
  H      -2.361496     -0.619329      1.023878
  H      -0.835769      1.646677      1.170336
  H      -2.002120      1.754446     -0.152499
  H       0.712152      1.942655     -0.686569
  H      -0.351295      1.043880     -1.794741
16
Coordinates from ORCA-job r0_C5H9O2_opt_orca E -345.607265009081
  O       2.138224     -1.139496      1.122391
  O       1.516427      0.060242      0.695365
  C       0.711324     -0.226004     -0.433528
  C      -0.434962     -1.179710     -0.082415
  C      -1.491135     -0.277061      0.460842
  C      -1.155240      1.158108      0.228796
  C       0.017920      1.093495     -0.758486
  H       3.050253     -0.984601      0.837886
  H       1.351553     -0.601365     -1.253212
  H      -0.093823     -1.959014      0.618357
  H      -0.770106     -1.713846     -0.995214
  H      -2.361031     -0.619682      1.024052
  H      -0.836939      1.647871      1.170508
  H      -2.003038      1.753669     -0.152540
  H       0.712350      1.943258     -0.687922
  H      -0.351477      1.044337     -1.794879
16
Coordinates from ORCA-job r0_C5H9O2_opt_orca E -345.607267148510
  O       2.137180     -1.137854      1.125302
  O       1.517184      0.061071      0.696357
  C       0.711738     -0.225290     -0.433155
  C      -0.433872     -1.179442     -0.081811
  C      -1.490815     -0.277053      0.460787
  C      -1.155965      1.158420      0.228608
  C       0.018043      1.094106     -0.757947
  H       3.047827     -0.991613      0.831337
  H       1.352782     -0.599766     -1.252747
  H      -0.091511     -1.957584      0.619706
  H      -0.768700     -1.715241     -0.993905
  H      -2.361414     -0.619982      1.023135
  H      -0.839142      1.649148      1.170486
  H      -2.004321      1.752679     -0.153709
  H       0.712441      1.944068     -0.687868
  H      -0.351156      1.044536     -1.794577
16
Coordinates from ORCA-job r0_C5H9O2_opt_orca E -345.607267510853
  O       2.137313     -1.137190      1.125970
  O       1.517674      0.061371      0.696633
  C       0.711822     -0.225013     -0.432777
  C      -0.433559     -1.179339     -0.081280
  C      -1.490949     -0.277058      0.460541
  C      -1.156279      1.158474      0.228445
  C       0.018174      1.094295     -0.757625
  H       3.047220     -0.993863      0.828261
  H       1.352829     -0.599368     -1.252464
  H      -0.091113     -1.956909      0.620820
  H      -0.767961     -1.715613     -0.993212
  H      -2.361961     -0.620055      1.022164
  H      -0.839936      1.649291      1.170403
  H      -2.004592      1.752386     -0.154442
  H       0.712416      1.944308     -0.687131
  H      -0.350801      1.044481     -1.794306
