! SP PBE0 RIJCOSX D3BJ def2-TZVP def2/J 
%geom
modify_internal
{ B 2 3 A } end
end
%geom
modify_internal
{ B 4 5 A } end
end
%output 
xyzfile=True 
end 
%scf 
maxiter 250 
end
%output
Print[P_Hirshfeld] = 1
end
% maxcore
4000
%pal nprocs 8
end
*xyz 0 1
C    0.38082200   1.58083308  -0.11406082 
C   -0.94451886   1.29835085   0.27813446 
C   -1.60521399   0.16863184  -0.14506617 
C   -0.22456929  -1.48997171   0.64667107 
C    1.06933587  -1.21364704   0.26553469 
C    1.08991968   0.74317778  -0.94294369 
H    0.91665766   2.37097104   0.42193603 
H   -1.37156596   1.88318092   1.09928335 
H   -2.58555723  -0.08470291   0.26740832 
H   -1.37677277  -0.28274969  -1.11151280 
H   -0.55527393  -1.28290146   1.66563925 
H   -0.81348864  -2.23081174   0.10033913 
H    1.77430068  -0.78450989   0.97923269 
H    1.51605516  -1.73388057  -0.58530196 
H    2.15080061   0.92444924  -1.13556227 
H    0.57918900   0.13388026  -1.68976128 
*
