16
Coordinates from ORCA-job TS_vdwLSy_ll_ad_1-4_0-1_optts_orca E -345.558563234368
  O       2.627733     -0.212658      0.881159
  O       0.923097     -0.541157      0.784434
  C       0.582036     -0.460038     -0.577608
  C      -0.738323     -1.221489     -0.416347
  C      -1.098973     -0.313726      0.717596
  C      -0.974122      1.097198      0.255951
  C       0.110014      0.977197     -0.838117
  H       2.739939     -0.451412      1.802260
  H       1.367491     -0.841561     -1.228685
  H      -0.594140     -2.256556     -0.120192
  H      -1.409409     -1.157620     -1.277614
  H      -1.570364     -0.614731      1.634572
  H      -0.673671      1.759624      1.067315
  H      -1.922942      1.469259     -0.144631
  H       0.923267      1.684088     -0.695418
  H      -0.291362      1.083771     -1.844686
16
Coordinates from ORCA-job TS_vdwLSy_ll_ad_1-4_0-1_optts_orca E -345.560651321597
  O       2.605294     -0.200303      0.836613
  O       0.904120     -0.543453      0.802469
  C       0.576554     -0.469804     -0.571130
  C      -0.742146     -1.226987     -0.422672
  C      -1.096736     -0.319422      0.715808
  C      -0.967074      1.096896      0.260578
  C       0.124551      0.972011     -0.828044
  H       2.720492     -0.394795      1.771933
  H       1.371627     -0.857673     -1.213691
  H      -0.599394     -2.266943     -0.125322
  H      -1.416332     -1.163492     -1.288685
  H      -1.578117     -0.623602      1.636085
  H      -0.668262      1.753839      1.082830
  H      -1.916455      1.480073     -0.140565
  H       0.949974      1.669668     -0.674190
  H      -0.267824      1.094177     -1.842029
16
Coordinates from ORCA-job TS_vdwLSy_ll_ad_1-4_0-1_optts_orca E -345.561209362601
  O       2.584996     -0.159873      0.827609
  O       0.899184     -0.542350      0.810398
  C       0.576046     -0.470745     -0.567662
  C      -0.740847     -1.228666     -0.420962
  C      -1.094832     -0.319904      0.717783
  C      -0.966681      1.097391      0.259669
  C       0.129901      0.971058     -0.824430
  H       2.720421     -0.425855      1.743727
  H       1.377097     -0.860358     -1.203969
  H      -0.595823     -2.269538     -0.121755
  H      -1.417666     -1.168414     -1.287559
  H      -1.583561     -0.622331      1.637926
  H      -0.673177      1.757486      1.083265
  H      -1.916743      1.478983     -0.145631
  H       0.959040      1.665848     -0.666500
  H      -0.257085      1.097460     -1.841918
16
Coordinates from ORCA-job TS_vdwLSy_ll_ad_1-4_0-1_optts_orca E -345.561557557377
  O       2.577463     -0.157121      0.804209
  O       0.898407     -0.556215      0.810221
  C       0.572604     -0.479980     -0.569429
  C      -0.747034     -1.230437     -0.423242
  C      -1.092557     -0.324347      0.720589
  C      -0.960707      1.094024      0.263759
  C       0.140771      0.966822     -0.816258
  H       2.709375     -0.364950      1.736647
  H       1.371515     -0.874473     -1.206982
  H      -0.606256     -2.274707     -0.129824
  H      -1.427631     -1.162615     -1.288038
  H      -1.591150     -0.626586      1.637732
  H      -0.673739      1.756505      1.089042
  H      -1.910388      1.474259     -0.146828
  H       0.978364      1.650119     -0.645995
  H      -0.238766      1.109892     -1.835614
16
Coordinates from ORCA-job TS_vdwLSy_ll_ad_1-4_0-1_optts_orca E -345.561855507117
  O       2.564698     -0.148984      0.781174
  O       0.897345     -0.568961      0.809784
  C       0.568362     -0.490122     -0.573436
  C      -0.752892     -1.233405     -0.426664
  C      -1.090008     -0.329807      0.722398
  C      -0.951677      1.090889      0.269342
  C       0.152611      0.961940     -0.808868
  H       2.685699     -0.298927      1.727489
  H       1.366918     -0.890905     -1.210145
  H      -0.613438     -2.280921     -0.137226
  H      -1.438917     -1.161951     -1.289704
  H      -1.600053     -0.632472      1.636839
  H      -0.666454      1.752093      1.098583
  H      -1.901348      1.475676     -0.141844
  H       1.000588      1.632379     -0.628004
  H      -0.221165      1.123670     -1.829727
16
Coordinates from ORCA-job TS_vdwLSy_ll_ad_1-4_0-1_optts_orca E -345.561932351530
  O       2.561599     -0.149947      0.764417
  O       0.900025     -0.578160      0.808073
  C       0.564859     -0.496495     -0.576449
  C      -0.757742     -1.234509     -0.426846
  C      -1.087832     -0.332498      0.725900
  C      -0.949342      1.088440      0.270994
  C       0.161350      0.959837     -0.801722
  H       2.678095     -0.256927      1.718064
  H       1.361153     -0.901527     -1.214956
  H      -0.619708     -2.284439     -0.141278
  H      -1.448736     -1.159210     -1.287385
  H      -1.603771     -0.634456      1.639593
  H      -0.675061      1.756054      1.100109
  H      -1.899531      1.466567     -0.148293
  H       1.016763      1.618129     -0.605580
  H      -0.201851      1.139331     -1.824650
16
Coordinates from ORCA-job TS_vdwLSy_ll_ad_1-4_0-1_optts_orca E -345.561940947484
  O       2.556429     -0.145876      0.758739
  O       0.898416     -0.581355      0.809178
  C       0.564240     -0.499336     -0.577118
  C      -0.758634     -1.235723     -0.428611
  C      -1.087134     -0.334749      0.725674
  C      -0.944601      1.087534      0.274012
  C       0.164233      0.957849     -0.800509
  H       2.668755     -0.235521      1.715171
  H       1.361767     -0.906152     -1.213797
  H      -0.621028     -2.286641     -0.143998
  H      -1.450595     -1.159569     -1.289255
  H      -1.612107     -0.636640      1.635580
  H      -0.665936      1.751231      1.105656
  H      -1.894779      1.471643     -0.141310
  H       1.022277      1.614249     -0.606305
  H      -0.201033      1.139245     -1.823115
16
Coordinates from ORCA-job TS_vdwLSy_ll_ad_1-4_0-1_optts_orca E -345.561942880059
  O       2.557427     -0.145544      0.759462
  O       0.899081     -0.579196      0.809258
  C       0.564218     -0.498210     -0.576971
  C      -0.758192     -1.235386     -0.427645
  C      -1.086982     -0.333838      0.726118
  C      -0.946759      1.087996      0.272519
  C       0.163617      0.958789     -0.800662
  H       2.671625     -0.246694      1.714525
  H       1.361791     -0.904825     -1.213739
  H      -0.619807     -2.286073     -0.142566
  H      -1.450468     -1.160075     -1.288117
  H      -1.608313     -0.635751      1.638108
  H      -0.671134      1.754152      1.103177
  H      -1.897233      1.468826     -0.145208
  H       1.021239      1.615182     -0.604487
  H      -0.199839      1.140838     -1.823784
16
Coordinates from ORCA-job TS_vdwLSy_ll_ad_1-4_0-1_optts_orca E -345.561942870188
  O       2.557810     -0.146721      0.759354
  O       0.899194     -0.579819      0.809125
  C       0.564153     -0.498358     -0.577105
  C      -0.758351     -1.235412     -0.427794
  C      -1.087112     -0.333965      0.726062
  C      -0.946557      1.087928      0.272716
  C       0.163701      0.958711     -0.800556
  H       2.671606     -0.243965      1.714900
  H       1.361613     -0.905009     -1.214015
  H      -0.620022     -2.286145     -0.142814
  H      -1.450678     -1.159994     -1.288241
  H      -1.608976     -0.635853      1.637801
  H      -0.670716      1.753859      1.103503
  H      -1.896983      1.469105     -0.144842
  H       1.021422      1.615007     -0.604449
  H      -0.199833      1.140822     -1.823654
