16
autodE path point 0. E = -23.276236026705 charge = 0 mult = 2 
O      2.22091   -1.18224    1.00930
O      1.52744   -0.00207    0.64524
C      0.68726   -0.24343   -0.46436
C     -0.47007   -1.18262   -0.09764
C     -1.49196   -0.27015    0.45709
C     -1.16318    1.15226    0.21546
C      0.01688    1.10056   -0.76072
H      3.14347   -0.89461    1.05121
H      1.28930   -0.61988   -1.30308
H     -0.13995   -1.94244    0.61691
H     -0.82297   -1.71365   -0.99274
H     -2.30933   -0.59430    1.07038
H     -0.86086    1.64802    1.14843
H     -2.00895    1.72260   -0.18261
H      0.71729    1.92143   -0.62117
H     -0.33500    1.10071   -1.79171
16
autodE path point 1. E = -23.261006872321 charge = 0 mult = 2 
O      2.30879   -1.28310    0.93433
O      1.48302    0.03604    0.53296
C      0.68575   -0.23809   -0.56207
C     -0.45868   -1.18061   -0.17339
C     -1.33716   -0.27434    0.58938
C     -1.12647    1.14718    0.23227
C     -0.01713    1.10561   -0.82523
H      2.84733   -0.90157    1.63410
H      1.28689   -0.58537   -1.41208
H     -0.09398   -2.02608    0.41256
H     -0.93835   -1.58111   -1.07781
H     -2.04335   -0.59822    1.32823
H     -0.81293    1.73092    1.10638
H     -2.03693    1.62484   -0.14938
H      0.68347    1.93345   -0.73729
H     -0.43000    1.09063   -1.83299
16
autodE path point 2. E = -23.249589577821 charge = 0 mult = 2 
O      2.28944   -1.28071    0.96958
O      1.35804    0.02432    0.58328
C      0.68572   -0.23498   -0.58987
C     -0.46630   -1.18037   -0.23884
C     -1.18013   -0.27184    0.67717
C     -1.10059    1.13787    0.22925
C     -0.02631    1.10265   -0.86661
H      2.67846   -0.92418    1.77304
H      1.35774   -0.55366   -1.39462
H     -0.10778   -2.08937    0.24262
H     -1.04652   -1.45487   -1.12925
H     -1.77134   -0.59085    1.51408
H     -0.81714    1.80144    1.05169
H     -2.06084    1.50694   -0.15432
H      0.66988    1.93597   -0.80301
H     -0.46206    1.07182   -1.86421
16
autodE path point 3. E = -23.242978008786 charge = 0 mult = 2 
O      2.70864   -0.23924    0.77126
O      1.04599   -0.55251    0.77845
C      0.59189   -0.45762   -0.53736
C     -0.71653   -1.23456   -0.36343
C     -1.27166   -0.30150    0.65011
C     -0.99626    1.10562    0.27058
C      0.11340    0.97680   -0.79000
H      2.86215   -0.40099    1.70490
H      1.32095   -0.84585   -1.25188
H     -0.55481   -2.24249    0.01229
H     -1.30481   -1.27940   -1.28936
H     -1.88866   -0.58942    1.47961
H     -0.67008    1.69094    1.13356
H     -1.89014    1.60156   -0.12767
H      0.92141    1.68816   -0.63726
H     -0.27121    1.08069   -1.80381
16
autodE path point 4. E = -23.240308697077 charge = 0 mult = 2 
O      2.62773   -0.21266    0.88116
O      0.92310   -0.54116    0.78443
C      0.58204   -0.46004   -0.57761
C     -0.73832   -1.22149   -0.41635
C     -1.09897   -0.31373    0.71760
C     -0.97412    1.09720    0.25595
C      0.11001    0.97720   -0.83812
H      2.73994   -0.45141    1.80226
H      1.36749   -0.84156   -1.22869
H     -0.59414   -2.25656   -0.12019
H     -1.40941   -1.15762   -1.27761
H     -1.57036   -0.61473    1.63457
H     -0.67367    1.75962    1.06731
H     -1.92294    1.46926   -0.14463
H      0.92327    1.68409   -0.69542
H     -0.29136    1.08377   -1.84469
16
autodE path point 5. E = -23.250579397549 charge = 0 mult = 2 
O      2.48477    0.04827    0.98333
O      0.79612   -0.61008    0.76107
C      0.55021   -0.51494   -0.63691
C     -0.80053   -1.21967   -0.47636
C     -0.91565   -0.35256    0.76356
C     -0.90936    1.07067    0.26582
C      0.15053    0.95018   -0.85433
H      2.65166   -0.33329    1.84530
H      1.36098   -0.91056   -1.24159
H     -0.70069   -2.27789   -0.25476
H     -1.54833   -1.04539   -1.24932
H     -1.37251   -0.64995    1.69371
H     -0.61238    1.76908    1.04506
H     -1.89130    1.35730   -0.11311
H      1.00582    1.59751   -0.68010
H     -0.24903    1.12150   -1.85141
