! Freq PBE0 RIJCOSX D3BJ def2-SVP def2/J 
%output 
xyzfile=True 
end 
%scf 
maxiter 250 
end
%output
Print[P_Hirshfeld] = 1
end
% maxcore
4000
%pal nprocs 8
end
*xyz 0 2
O    2.62773258  -0.21265829   0.88115918 
O    0.92309664  -0.54115705   0.78443446 
C    0.58203605  -0.46003794  -0.57760826 
C   -0.73832347  -1.22148858  -0.41634668 
C   -1.09897324  -0.31372560   0.71759577 
C   -0.97412174   1.09719807   0.25595144 
C    0.11001371   0.97719723  -0.83811656 
H    2.73993936  -0.45141213   1.80225974 
H    1.36749128  -0.84156053  -1.22868512 
H   -0.59414010  -2.25655583  -0.12019201 
H   -1.40940879  -1.15761992  -1.27761415 
H   -1.57036445  -0.61473125   1.63457246 
H   -0.67367113   1.75962411   1.06731464 
H   -1.92294194   1.46925908  -0.14463068 
H    0.92326717   1.68408758  -0.69541849 
H   -0.29136192   1.08377107  -1.84468571 
*
