! EnGrad PBE0 RIJCOSX D3BJ def2-SVP def2/J 
%output 
xyzfile=True 
end 
%scf 
maxiter 250 
end
%output
Print[P_Hirshfeld] = 1
end
% maxcore
4000
*xyz 0 2
O   -2.56120259  -0.47957830   0.73950613 
O   -1.29127225   0.18920355   1.15705476 
C   -0.62158252   0.48782201  -0.04587857 
C    0.57631569   1.29712464   0.35523007 
C    1.73731029   0.58602309   0.08285777 
C    1.44564151  -0.62441164  -0.53169045 
C   -0.02893212  -0.75807038  -0.73321472 
H   -2.62859261  -1.11440053   1.46419016 
H   -1.31782289   1.04277785  -0.70174327 
H    0.50417039   2.27108126   0.83909351 
H    2.74496441   0.93697144   0.31493072 
H    2.17914289  -1.36605143  -0.85148604 
H   -0.28577441  -0.79827674  -1.80609786 
H   -0.45236936  -1.67011839  -0.28275434 
*
