! EnGrad PBE0 RIJCOSX D3BJ def2-SVP def2/J 
%output 
xyzfile=True 
end 
%scf 
maxiter 250 
end
%output
Print[P_Hirshfeld] = 1
end
% maxcore
4000
*xyz 0 2
O   -2.51522333  -0.46484474   0.75701082 
O   -1.33666845   0.16239289   1.14278453 
C   -0.62293735   0.48798765  -0.04530760 
C    0.57616036   1.29869727   0.35248468 
C    1.73845984   0.58629972   0.08418159 
C    1.44874613  -0.62579376  -0.53117682 
C   -0.02886999  -0.75812637  -0.73734610 
H   -2.63011388  -1.10697985   1.47273921 
H   -1.32012381   1.04290253  -0.70135960 
H    0.50362643   2.27267840   0.83624410 
H    2.74535971   0.93583128   0.31815067 
H    2.18009506  -1.36850024  -0.84790522 
H   -0.28254144  -0.79315528  -1.81106005 
H   -0.45622431  -1.66944677  -0.29005702 
*
