! LooseOpt PBE0 RIJCOSX D3BJ def2-SVP def2/J 
%geom MaxIter 10 end
%output 
xyzfile=True 
end 
%scf 
maxiter 250 
end
%output
Print[P_Hirshfeld] = 1
end
% maxcore
4000
%pal nprocs 8
end
*xyz 0 1
C    0.24795576   1.48537643  -0.31436321 
C   -1.01042935   1.15711684  -0.07547828 
C   -1.45463519  -0.23520834   0.25287935 
C   -0.27222451  -1.11474712   0.65086609 
C    0.86364684  -0.93402207  -0.35005565 
C    1.37774054   0.50203513  -0.29070601 
H    0.51554243   2.51054356  -0.53443581 
H   -1.79095104   1.90506083  -0.12087865 
H   -2.19148958  -0.20273486   1.05991182 
H   -1.95756116  -0.66172289  -0.62174513 
H    0.07677055  -0.82356824   1.64360890 
H   -0.58102080  -2.16110949   0.69510673 
H    1.67612338  -1.63156936  -0.13705960 
H    0.49201396  -1.14493632  -1.35526204 
H    1.95765367   0.65177062   0.62674649 
H    2.05096449   0.69801528  -1.12913501 
*
