16
Coordinates from ORCA-job p0_C6H10_conf1_opt_orca E -234.205202253354
  C       0.247956      1.485376     -0.314363
  C      -1.010429      1.157117     -0.075478
  C      -1.454635     -0.235208      0.252879
  C      -0.272225     -1.114747      0.650866
  C       0.863647     -0.934022     -0.350056
  C       1.377741      0.502035     -0.290706
  H       0.515542      2.510544     -0.534436
  H      -1.790951      1.905061     -0.120879
  H      -2.191490     -0.202735      1.059912
  H      -1.957561     -0.661723     -0.621745
  H       0.076771     -0.823568      1.643609
  H      -0.581021     -2.161109      0.695107
  H       1.676123     -1.631569     -0.137060
  H       0.492014     -1.144936     -1.355262
  H       1.957654      0.651771      0.626746
  H       2.050964      0.698015     -1.129135
16
Coordinates from ORCA-job p0_C6H10_conf1_opt_orca E -234.206676293599
  C       0.251763      1.493973     -0.315885
  C      -1.018310      1.162460     -0.076464
  C      -1.459597     -0.235115      0.257098
  C      -0.277610     -1.122331      0.645737
  C       0.871760     -0.935945     -0.342949
  C       1.382199      0.503578     -0.295757
  H       0.516565      2.534121     -0.537191
  H      -1.804179      1.924891     -0.123187
  H      -2.201911     -0.204531      1.071911
  H      -1.979313     -0.665548     -0.618902
  H       0.069178     -0.840786      1.654445
  H      -0.590347     -2.177422      0.687062
  H       1.691823     -1.638040     -0.125354
  H       0.508031     -1.157631     -1.360584
  H       1.978749      0.659606      0.622190
  H       2.061298      0.699021     -1.142169
16
Coordinates from ORCA-job p0_C6H10_conf1_opt_orca E -234.206861634878
  C       0.252922      1.496609     -0.315578
  C      -1.020702      1.163919     -0.077516
  C      -1.459904     -0.233562      0.258888
  C      -0.280630     -1.125348      0.640809
  C       0.875580     -0.935538     -0.337194
  C       1.381756      0.504465     -0.298360
  H       0.511726      2.539308     -0.535403
  H      -1.802439      1.931506     -0.125647
  H      -2.201608     -0.203531      1.075615
  H      -1.991142     -0.663813     -0.612186
  H       0.062099     -0.855093      1.655821
  H      -0.594940     -2.180887      0.678203
  H       1.696824     -1.636285     -0.115929
  H       0.521351     -1.165963     -1.358025
  H       1.989012      0.665841      0.613432
  H       2.060197      0.698673     -1.146929
16
Coordinates from ORCA-job p0_C6H10_conf1_opt_orca E -234.206935744360
  C       0.253477      1.497377     -0.314561
  C      -1.021552      1.164053     -0.078549
  C      -1.459493     -0.231665      0.259886
  C      -0.283179     -1.127364      0.636094
  C       0.878516     -0.934661     -0.331882
  C       1.380459      0.505437     -0.300209
  H       0.505117      2.541521     -0.532470
  H      -1.797538      1.936358     -0.128606
  H      -2.199147     -0.201388      1.078457
  H      -2.002274     -0.660840     -0.604783
  H       0.054761     -0.869852      1.656222
  H      -0.598890     -2.182361      0.668005
  H       1.700168     -1.632871     -0.105675
  H       0.535014     -1.174352     -1.354474
  H       1.998254      0.672659      0.603636
  H       2.056406      0.698249     -1.151092
16
Coordinates from ORCA-job p0_C6H10_conf1_opt_orca E -234.206943507214
  C       0.253425      1.496892     -0.314029
  C      -1.021230      1.163597     -0.078775
  C      -1.459586     -0.231121      0.259815
  C      -0.283757     -1.127599      0.635170
  C       0.879083     -0.934347     -0.330875
  C       1.380239      0.505910     -0.300387
  H       0.502930      2.541300     -0.531255
  H      -1.795407      1.937125     -0.129638
  H      -2.197869     -0.200212      1.079391
  H      -2.005413     -0.659821     -0.602776
  H       0.052610     -0.873945      1.656374
  H      -0.599813     -2.182352      0.664362
  H       1.700684     -1.631437     -0.102124
  H       0.538909     -1.176689     -1.353563
  H       2.000836      0.674802      0.600859
  H       2.054460      0.698197     -1.152550
