16
Generated by autodE on: 2025-05-23. charge = 0 mult = 1 E = -17.931437 Ha
C      0.24796    1.48538   -0.31436
C     -1.01043    1.15712   -0.07548
C     -1.45464   -0.23521    0.25288
C     -0.27222   -1.11475    0.65087
C      0.86365   -0.93402   -0.35006
C      1.37774    0.50204   -0.29071
H      0.51554    2.51054   -0.53444
H     -1.79095    1.90506   -0.12088
H     -2.19149   -0.20273    1.05991
H     -1.95756   -0.66172   -0.62175
H      0.07677   -0.82357    1.64361
H     -0.58102   -2.16111    0.69511
H      1.67612   -1.63157   -0.13706
H      0.49201   -1.14494   -1.35526
H      1.95765    0.65177    0.62675
H      2.05096    0.69802   -1.12914
