16
Generated by autodE on: 2025-05-23. charge = 0 mult = 1 E = -234.206944 Ha
C      0.25342    1.49689   -0.31403
C     -1.02123    1.16360   -0.07877
C     -1.45959   -0.23112    0.25981
C     -0.28376   -1.12760    0.63517
C      0.87908   -0.93435   -0.33087
C      1.38024    0.50591   -0.30039
H      0.50293    2.54130   -0.53126
H     -1.79541    1.93713   -0.12964
H     -2.19787   -0.20021    1.07939
H     -2.00541   -0.65982   -0.60278
H      0.05261   -0.87394    1.65637
H     -0.59981   -2.18235    0.66436
H      1.70068   -1.63144   -0.10212
H      0.53891   -1.17669   -1.35356
H      2.00084    0.67480    0.60086
H      2.05446    0.69820   -1.15255
