! LooseOpt PBE0 RIJCOSX D3BJ def2-SVP def2/J 
%geom MaxIter 10 end
%output 
xyzfile=True 
end 
%scf 
maxiter 250 
end
%output
Print[P_Hirshfeld] = 1
end
% maxcore
4000
%pal nprocs 8
end
*xyz 0 1
C   -1.82205215   0.11862177  -0.13395482 
C   -0.55338054   0.46363697  -0.32433863 
C    0.55327950  -0.46288177  -0.22215785 
C    1.82216679  -0.11864379  -0.41236410 
H   -2.62726011   0.82825203  -0.21705991 
H   -2.09979900  -0.89365552   0.11179445 
H   -0.29684455   1.48592109  -0.57139950 
H    0.29648345  -1.48518029   0.02478895 
H    2.10084019   0.89319957  -0.65862429 
H    2.62656642  -0.82917008  -0.32938431 
*
