10
Coordinates from ORCA-job r0_C4H6_conf0_opt_orca E -155.684631635372
  C      -1.822052      0.118622     -0.133955
  C      -0.553381      0.463637     -0.324339
  C       0.553279     -0.462882     -0.222158
  C       1.822167     -0.118644     -0.412364
  H      -2.627260      0.828252     -0.217060
  H      -2.099799     -0.893656      0.111794
  H      -0.296845      1.485921     -0.571399
  H       0.296483     -1.485180      0.024789
  H       2.100840      0.893200     -0.658624
  H       2.626566     -0.829170     -0.329384
10
Coordinates from ORCA-job r0_C4H6_conf0_opt_orca E -155.686038550928
  C      -1.836865      0.119525     -0.133074
  C      -0.558023      0.464377     -0.324284
  C       0.557932     -0.463903     -0.222379
  C       1.836930     -0.119552     -0.413407
  H      -2.651266      0.843402     -0.218055
  H      -2.118960     -0.908364      0.117008
  H      -0.302210      1.501133     -0.574217
  H       0.301955     -1.500633      0.027531
  H       2.119709      0.908129     -0.663552
  H       2.650798     -0.844013     -0.328271
10
Coordinates from ORCA-job r0_C4H6_conf0_opt_orca E -155.686063821397
  C      -1.839464      0.119603     -0.132894
  C      -0.558920      0.463600     -0.324037
  C       0.558858     -0.463283     -0.222594
  C       1.839504     -0.119615     -0.413627
  H      -2.651734      0.845572     -0.218495
  H      -2.121244     -0.908455      0.117269
  H      -0.306018      1.501329     -0.573887
  H       0.305850     -1.500994      0.027245
  H       2.121752      0.908312     -0.663789
  H       2.651416     -0.845971     -0.327892
10
Coordinates from ORCA-job r0_C4H6_conf0_opt_orca E -155.686077938465
  C      -1.841311      0.119467     -0.132713
  C      -0.559562      0.462273     -0.323674
  C       0.559546     -0.462181     -0.222882
  C       1.841317     -0.119451     -0.413839
  H      -2.650197      0.848584     -0.219316
  H      -2.122393     -0.908614      0.117411
  H      -0.311068      1.501136     -0.573354
  H       0.311030     -1.501040      0.026797
  H       2.122532      0.908597     -0.663942
  H       2.650106     -0.848673     -0.327189
