10
Generated by autodE on: 2025-05-23. charge = 0 mult = 1 E = -11.552702 Ha
C     -1.82205    0.11862   -0.13395
C     -0.55338    0.46364   -0.32434
C      0.55328   -0.46288   -0.22216
C      1.82217   -0.11864   -0.41236
H     -2.62726    0.82825   -0.21706
H     -2.09980   -0.89366    0.11179
H     -0.29684    1.48592   -0.57140
H      0.29648   -1.48518    0.02479
H      2.10084    0.89320   -0.65862
H      2.62657   -0.82917   -0.32938
