! EnGrad PBE0 RIJCOSX D3BJ def2-SVP def2/J 
%output 
xyzfile=True 
end 
%scf 
maxiter 250 
end
%output
Print[P_Hirshfeld] = 1
end
% maxcore
4000
*xyz 0 2
O   -2.22423778  -0.87405576   1.20272475 
O   -0.74541450   0.03131546   1.03016245 
C   -0.65984217   0.47106829  -0.33040495 
C    0.42524897   1.28742862   0.24826219 
C    1.58383634   0.48144927   0.22235646 
C    1.34126502  -0.71597797  -0.43835466 
C   -0.03600860  -0.61581269  -1.14416611 
H   -2.30679410  -0.50836366   2.09944153 
H   -1.60851334   0.94670160  -0.66262805 
H    0.28616001   2.26451595   0.73078805 
H    2.52319196   0.69626418   0.75073931 
H    1.93127241  -1.54705496  -0.44939781 
H    0.14078623  -0.38465205  -2.19992893 
H   -0.65057502  -1.53251201  -1.06010182 
*
