! EnGrad PBE0 RIJCOSX D3BJ def2-SVP def2/J 
%output 
xyzfile=True 
end 
%scf 
maxiter 250 
end
%output
Print[P_Hirshfeld] = 1
end
% maxcore
4000
*xyz 0 2
O   -2.22127841  -0.87050440   1.20484636 
O   -0.75197073   0.02966809   1.02482165 
C   -0.66516425   0.47225260  -0.32266543 
C    0.42817354   1.28951393   0.24769383 
C    1.58765407   0.47735501   0.22233883 
C    1.32373384  -0.69473739  -0.44071195 
C   -0.02899210  -0.62224575  -1.13955879 
H   -2.30806002  -0.50769128   2.09888765 
H   -1.60585493   0.94512249  -0.66271936 
H    0.28592906   2.26189180   0.73048383 
H    2.52151919   0.69659768   0.75047507 
H    1.94384040  -1.56165783  -0.45107417 
H    0.13969788  -0.38329475  -2.20203107 
H   -0.64885474  -1.53192180  -1.06132332 
*
